Global frequency set at 1000000000000 ticks per second
gem5 Simulator System.  https://www.gem5.org
gem5 is copyrighted software; use the --copyright option for details.

gem5 version 22.0.0.2
gem5 compiled Dec  7 2024 16:29:37
gem5 started Dec  7 2024 16:38:49
gem5 executing on qstruct.ecn.purdue.edu, pid 18231
command line: ./build/ECE565-ARM/gem5.opt configs/spec/spec_se.py --cpu-type ArmMinorCPU --l1d_size=64kB --l1i_size=64kB --caches --l2cache --l2_compressor --gcp -b astar --maxinsts=10000000

**** REAL SIMULATION ****
block start
block start
block start
block start
block start
block start
block start
block start
block start
block start
block start
block start
block start
block start
block start
block start
block start
block start
block start
block start
block start
block start
block start
block start
block start
block start
block start
block start
block start
block start
block start
block start
block start
block start
block start
block start
block start
block start
block start
block start
block start
block start
block start
block start
block start
block start
block start
block start
block start
block start
block start
block start
block start
block start
block start
block start
block start
block start
block start
block start
block start
block start
block start
block start
block start
block start
block start
block start
block start
block start
block start
block start
block start
block start
block start
block start
block start
block start
block start
block start
block start
block start
block start
block start
block start
block start
block start
block start
block start
block start
block start
block start
block start
block start
block start
block start
block start
block start
block start
block start
block start
block start
block start
block start
block start
block start
block start
block start
block start
block start
block start
block start
block start
block start
block start
block start
block start
block start
block start
block start
block start
block start
block start
block start
block start
block start
block start
block start
block start
block start
block start
block start
block start
block start
block start
block start
block start
block start
block start
block start
block start
block start
block start
block start
block start
block start
block start
block start
block start
block start
block start
block start
block start
block start
block start
block start
block start
block start
block start
block start
block start
block start
block start
block start
block start
block start
block start
block start
block start
block start
block start
block start
block start
block start
block start
block start
block start
block start
block start
block start
block start
block start
block start
block start
block start
block start
block start
block start
block start
block start
block start
block start
block start
block start
block start
block start
block start
block start
block start
block start
block start
block start
block start
block start
block start
block start
block start
block start
block start
block start
block start
block start
block start
block start
block start
block start
block start
block start
block start
block start
block start
block start
block start
block start
block start
block start
block start
block start
block start
block start
block start
block start
block start
block start
block start
block start
block start
block start
block start
block start
block start
block start
block start
block start
block start
block start
block start
block start
block start
block start
block start
block start
block start
block start
block start
block start
block start
block start
block start
block start
block start
block start
block start
block start
block start
block start
block start
block start
block start
block start
block start
block start
block start
block start
block start
block start
block start
block start
block start
block start
block start
block start
block start
block start
block start
block start
block start
block start
block start
block start
block start
block start
block start
block start
block start
block start
block start
block start
block start
block start
block start
block start
block start
block start
block start
block start
block start
block start
block start
block start
block start
block start
block start
block start
block start
block start
block start
block start
block start
block start
block start
block start
block start
block start
block start
block start
block start
block start
block start
block start
block start
block start
block start
block start
block start
block start
block start
block start
block start
block start
block start
block start
block start
block start
block start
block start
block start
block start
block start
block start
block start
block start
block start
block start
block start
block start
block start
block start
block start
block start
block start
block start
block start
block start
block start
block start
block start
block start
block start
block start
block start
block start
block start
block start
block start
block start
block start
block start
block start
block start
block start
block start
block start
block start
block start
block start
block start
block start
block start
block start
block start
block start
block start
block start
block start
block start
block start
block start
block start
block start
block start
block start
block start
block start
block start
block start
block start
block start
block start
block start
block start
block start
block start
block start
block start
block start
block start
block start
block start
block start
block start
block start
block start
block start
block start
block start
block start
block start
block start
block start
block start
block start
block start
block start
block start
block start
block start
block start
block start
block start
block start
block start
block start
block start
block start
block start
block start
block start
block start
block start
block start
block start
block start
block start
block start
block start
block start
block start
block start
block start
block start
block start
block start
block start
block start
block start
block start
block start
block start
block start
block start
block start
block start
block start
block start
block start
block start
block start
block start
block start
block start
block start
block start
block start
block start
block start
block start
block start
block start
block start
block start
block start
block start
block start
block start
block start
block start
block start
block start
block start
block start
block start
block start
block start
block start
block start
block start
block start
block start
block start
block start
block start
block start
block start
block start
block start
block start
block start
block start
block start
block start
block start
block start
block start
block start
block start
block start
block start
block start
block start
block start
block start
block start
block start
block start
block start
block start
block start
block start
block start
block start
block start
block start
block start
block start
block start
block start
block start
block start
block start
block start
block start
block start
block start
block start
block start
block start
block start
block start
block start
block start
block start
block start
block start
block start
block start
block start
block start
block start
block start
block start
block start
block start
block start
block start
block start
block start
block start
block start
block start
block start
block start
block start
block start
block start
block start
block start
block start
block start
block start
block start
block start
block start
block start
block start
block start
block start
block start
block start
block start
block start
block start
block start
block start
block start
block start
block start
block start
block start
block start
block start
block start
block start
block start
block start
block start
block start
block start
block start
block start
block start
block start
block start
block start
block start
block start
block start
block start
block start
block start
block start
block start
block start
block start
block start
block start
block start
block start
block start
block start
block start
block start
block start
block start
block start
block start
block start
block start
block start
block start
block start
block start
block start
block start
block start
block start
block start
block start
block start
block start
block start
block start
block start
block start
block start
block start
block start
block start
block start
block start
block start
block start
block start
block start
block start
block start
block start
block start
block start
block start
block start
block start
block start
block start
block start
block start
block start
block start
block start
block start
block start
block start
block start
block start
block start
block start
block start
block start
block start
block start
block start
block start
block start
block start
block start
block start
block start
block start
block start
block start
block start
block start
block start
block start
block start
block start
block start
block start
block start
block start
block start
block start
block start
block start
block start
block start
block start
block start
block start
block start
block start
block start
block start
block start
block start
block start
block start
block start
block start
block start
block start
block start
block start
block start
block start
block start
block start
block start
block start
block start
block start
block start
block start
block start
block start
block start
block start
block start
block start
block start
block start
block start
block start
block start
block start
block start
block start
block start
block start
block start
block start
block start
block start
block start
block start
block start
block start
block start
block start
block start
block start
block start
block start
block start
block start
block start
block start
block start
block start
block start
block start
block start
block start
block start
block start
block start
block start
block start
block start
block start
block start
block start
block start
block start
block start
block start
block start
block start
block start
block start
block start
block start
block start
block start
block start
block start
block start
block start
block start
block start
block start
block start
block start
block start
block start
block start
block start
block start
block start
block start
block start
block start
block start
block start
block start
block start
block start
block start
block start
block start
block start
block start
block start
block start
block start
block start
block start
block start
block start
block start
block start
block start
block start
block start
block start
block start
block start
block start
block start
block start
block start
block start
block start
block start
block start
block start
block start
block start
block start
block start
block start
block start
block start
block start
block start
block start
block start
block start
block start
block start
block start
block start
block start
block start
block start
block start
block start
block start
block start
block start
block start
block start
block start
block start
block start
block start
block start
block start
block start
block start
block start
block start
block start
block start
block start
block start
block start
block start
block start
block start
block start
block start
block start
block start
block start
block start
block start
block start
block start
block start
block start
block start
block start
block start
block start
block start
block start
block start
block start
block start
block start
block start
block start
block start
block start
block start
block start
block start
block start
block start
block start
block start
block start
block start
block start
block start
block start
block start
block start
block start
block start
block start
block start
block start
block start
block start
block start
block start
block start
block start
block start
block start
block start
block start
block start
block start
block start
block start
block start
block start
block start
block start
block start
block start
block start
block start
block start
block start
block start
block start
block start
block start
block start
block start
block start
block start
block start
block start
block start
block start
block start
block start
block start
block start
block start
block start
block start
block start
block start
block start
block start
block start
block start
block start
block start
block start
block start
block start
block start
block start
block start
block start
block start
block start
block start
block start
block start
block start
block start
block start
block start
block start
block start
block start
block start
block start
block start
block start
block start
block start
block start
block start
block start
block start
block start
block start
block start
block start
block start
block start
block start
block start
block start
block start
block start
block start
block start
block start
block start
block start
block start
block start
block start
block start
block start
block start
block start
block start
block start
block start
block start
block start
block start
block start
block start
block start
block start
block start
block start
block start
block start
block start
block start
block start
block start
block start
block start
block start
block start
block start
block start
block start
block start
block start
block start
block start
block start
block start
block start
block start
block start
block start
block start
block start
block start
block start
block start
block start
block start
block start
block start
block start
block start
block start
block start
block start
block start
block start
block start
block start
block start
block start
block start
block start
block start
block start
block start
block start
block start
block start
block start
block start
block start
block start
block start
block start
block start
block start
block start
block start
block start
block start
block start
block start
block start
block start
block start
block start
block start
block start
block start
block start
block start
block start
block start
block start
block start
block start
block start
block start
block start
block start
block start
block start
block start
block start
block start
block start
block start
block start
block start
block start
block start
block start
block start
block start
block start
block start
block start
block start
block start
block start
block start
block start
block start
block start
block start
block start
block start
block start
block start
block start
block start
block start
block start
block start
block start
block start
block start
block start
block start
block start
block start
block start
block start
block start
block start
block start
block start
block start
block start
block start
block start
block start
block start
block start
block start
block start
block start
block start
block start
block start
block start
block start
block start
block start
block start
block start
block start
block start
block start
block start
block start
block start
block start
block start
block start
block start
block start
block start
block start
block start
block start
block start
block start
block start
block start
block start
block start
block start
block start
block start
block start
block start
block start
block start
block start
block start
block start
block start
block start
block start
block start
block start
block start
block start
block start
block start
block start
block start
block start
block start
block start
block start
block start
block start
block start
block start
block start
block start
block start
block start
block start
block start
block start
block start
block start
block start
block start
block start
block start
block start
block start
block start
block start
block start
block start
block start
block start
block start
block start
block start
block start
block start
block start
block start
block start
block start
block start
block start
block start
block start
block start
block start
block start
block start
block start
block start
block start
block start
block start
block start
block start
block start
block start
block start
block start
block start
block start
block start
block start
block start
block start
block start
block start
block start
block start
block start
block start
block start
block start
block start
block start
block start
block start
block start
block start
block start
block start
block start
block start
block start
block start
block start
block start
block start
block start
block start
block start
block start
block start
block start
block start
block start
block start
block start
block start
block start
block start
block start
block start
block start
block start
block start
block start
block start
block start
block start
block start
block start
block start
block start
block start
block start
block start
block start
block start
block start
block start
block start
block start
block start
block start
block start
block start
block start
block start
block start
block start
block start
block start
block start
block start
block start
block start
block start
block start
block start
block start
block start
block start
block start
block start
block start
block start
block start
block start
block start
block start
block start
block start
block start
block start
block start
block start
block start
block start
block start
block start
block start
block start
block start
block start
block start
block start
block start
block start
block start
block start
block start
block start
block start
block start
block start
block start
block start
block start
block start
block start
block start
block start
block start
block start
block start
block start
block start
block start
block start
block start
block start
block start
block start
block start
block start
block start
block start
block start
block start
block start
block start
block start
block start
block start
block start
block start
block start
block start
block start
block start
block start
block start
block start
block start
block start
block start
block start
block start
block start
block start
block start
block start
block start
block start
block start
block start
block start
block start
block start
block start
block start
block start
block start
block start
block start
block start
block start
block start
block start
block start
block start
block start
block start
block start
block start
block start
block start
block start
block start
block start
block start
block start
block start
block start
block start
block start
block start
block start
block start
block start
block start
block start
block start
block start
block start
block start
block start
block start
block start
block start
block start
block start
block start
block start
block start
block start
block start
block start
block start
block start
block start
block start
block start
block start
block start
block start
block start
block start
block start
block start
block start
block start
block start
block start
block start
block start
block start
block start
block start
block start
block start
block start
block start
block start
block start
block start
block start
block start
block start
block start
block start
block start
block start
block start
block start
block start
block start
block start
block start
block start
block start
block start
block start
block start
block start
block start
block start
block start
block start
block start
block start
block start
block start
block start
block start
block start
block start
block start
block start
block start
block start
block start
block start
block start
block start
block start
block start
block start
block start
block start
block start
block start
block start
block start
block start
block start
block start
block start
block start
block start
block start
block start
block start
block start
block start
block start
block start
block start
block start
block start
block start
block start
block start
block start
block start
block start
block start
block start
block start
block start
block start
block start
block start
block start
block start
block start
block start
block start
block start
block start
block start
block start
block start
block start
block start
block start
block start
block start
block start
block start
block start
block start
block start
block start
block start
block start
block start
block start
block start
block start
block start
block start
block start
block start
block start
block start
block start
block start
block start
block start
block start
block start
block start
block start
block start
block start
block start
block start
block start
block start
block start
block start
block start
block start
block start
block start
block start
block start
block start
block start
block start
block start
block start
block start
block start
block start
block start
block start
block start
block start
block start
block start
block start
block start
block start
block start
block start
block start
block start
block start
block start
block start
block start
block start
block start
block start
block start
block start
block start
block start
block start
block start
block start
block start
block start
block start
block start
block start
block start
block start
block start
block start
block start
block start
block start
block start
block start
block start
block start
block start
block start
block start
block start
block start
block start
block start
block start
block start
block start
block start
block start
block start
block start
block start
block start
block start
block start
block start
block start
block start
block start
block start
block start
block start
block start
block start
block start
block start
block start
block start
block start
block start
block start
block start
block start
block start
block start
block start
block start
block start
block start
block start
block start
block start
block start
block start
block start
block start
block start
block start
block start
block start
block start
block start
block start
block start
block start
block start
block start
block start
block start
block start
block start
block start
block start
block start
block start
block start
block start
block start
block start
block start
block start
block start
block start
block start
block start
block start
block start
block start
block start
block start
block start
block start
block start
block start
block start
block start
block start
block start
block start
block start
block start
block start
block start
block start
block start
block start
block start
block start
block start
block start
block start
block start
block start
block start
block start
block start
block start
block start
block start
block start
block start
block start
block start
block start
block start
block start
block start
block start
block start
block start
block start
block start
block start
block start
block start
block start
block start
block start
block start
block start
block start
block start
block start
block start
block start
block start
block start
block start
block start
block start
block start
block start
block start
block start
block start
block start
block start
block start
block start
block start
block start
block start
block start
block start
block start
block start
block start
block start
block start
block start
block start
block start
block start
block start
block start
block start
block start
block start
block start
block start
block start
block start
block start
block start
block start
block start
block start
block start
block start
block start
block start
block start
block start
block start
block start
block start
block start
block start
block start
block start
block start
block start
block start
block start
block start
block start
block start
block start
block start
block start
block start
block start
block start
block start
block start
block start
block start
block start
block start
block start
block start
block start
block start
block start
block start
block start
block start
block start
block start
block start
block start
block start
block start
block start
block start
block start
block start
block start
block start
block start
block start
block start
block start
block start
block start
block start
block start
block start
block start
block start
block start
block start
block start
block start
block start
block start
block start
block start
block start
block start
block start
block start
block start
block start
block start
block start
block start
block start
block start
block start
block start
block start
block start
block start
block start
block start
block start
block start
block start
block start
block start
block start
block start
block start
block start
block start
block start
block start
block start
block start
block start
block start
block start
block start
block start
block start
block start
block start
block start
block start
block start
block start
block start
block start
block start
block start
block start
block start
block start
block start
block start
block start
block start
block start
block start
block start
block start
block start
block start
block start
block start
block start
block start
block start
block start
block start
block start
block start
block start
block start
block start
block start
block start
block start
block start
block start
block start
block start
block start
block start
block start
block start
block start
block start
block start
block start
block start
block start
block start
block start
block start
block start
block start
block start
block start
block start
block start
block start
block start
block start
block start
block start
block start
block start
block start
block start
block start
block start
block start
block start
block start
block start
block start
block start
block start
block start
block start
block start
block start
block start
block start
block start
block start
block start
block start
block start
block start
block start
block start
block start
block start
block start
block start
block start
block start
block start
block start
block start
block start
block start
block start
block start
block start
block start
block start
block start
block start
block start
block start
block start
block start
block start
block start
block start
block start
block start
block start
block start
block start
block start
block start
block start
block start
block start
block start
block start
block start
block start
block start
block start
block start
block start
block start
block start
block start
block start
block start
block start
block start
block start
block start
block start
block start
block start
block start
block start
block start
block start
block start
block start
block start
block start
block start
block start
block start
block start
block start
block start
block start
block start
block start
block start
block start
block start
block start
block start
block start
block start
block start
block start
block start
block start
block start
block start
block start
block start
block start
block start
block start
block start
block start
block start
block start
block start
block start
block start
block start
block start
block start
block start
block start
block start
block start
block start
block start
block start
block start
block start
block start
block start
block start
block start
block start
block start
block start
block start
block start
origin_offset: 0 
rest_offset: 1 
cancoallocate : 0 
block start
block start
block start
block start
block start
block start
block start
block start
block start
block start
block start
block start
block start
block start
block start
block start
block start
block start
block start
block start
block start
block start
block start
block start
block start
block start
block start
block start
block start
block start
block start
block start
block start
block start
block start
block start
block start
block start
block start
block start
block start
block start
block start
block start
block start
block start
block start
block start
block start
block start
block start
block start
block start
block start
block start
block start
block start
block start
block start
block start
block start
block start
block start
block start
block start
block start
block start
block start
block start
block start
block start
block start
block start
block start
block start
block start
block start
block start
block start
block start
block start
block start
block start
block start
block start
block start
block start
block start
block start
block start
block start
block start
block start
block start
block start
block start
block start
block start
block start
block start
block start
block start
block start
block start
block start
block start
block start
block start
block start
block start
block start
block start
block start
block start
block start
block start
block start
block start
block start
block start
block start
block start
block start
block start
block start
block start
block start
block start
block start
block start
block start
block start
block start
block start
block start
block start
block start
block start
block start
block start
block start
block start
block start
block start
block start
block start
block start
block start
block start
block start
block start
block start
block start
block start
block start
block start
block start
block start
block start
block start
block start
block start
block start
block start
block start
block start
block start
block start
block start
block start
block start
block start
block start
block start
block start
block start
block start
block start
block start
block start
block start
block start
block start
block start
block start
block start
block start
block start
block start
block start
block start
block start
block start
block start
block start
block start
block start
block start
block start
block start
block start
block start
block start
block start
block start
block start
block start
block start
block start
block start
block start
block start
block start
block start
block start
block start
block start
block start
block start
block start
block start
block start
block start
block start
block start
block start
block start
block start
block start
block start
block start
block start
block start
block start
block start
block start
block start
block start
block start
block start
block start
block start
block start
block start
block start
block start
block start
block start
block start
block start
block start
block start
block start
block start
block start
block start
block start
block start
block start
block start
block start
block start
block start
block start
block start
block start
block start
block start
block start
block start
block start
block start
block start
block start
block start
block start
block start
block start
block start
block start
block start
block start
block start
block start
block start
block start
block start
block start
block start
block start
block start
block start
block start
block start
block start
block start
block start
block start
block start
block start
block start
block start
block start
block start
block start
block start
block start
block start
block start
block start
block start
block start
block start
block start
block start
block start
block start
block start
block start
block start
block start
block start
block start
block start
block start
block start
block start
block start
block start
block start
block start
block start
block start
block start
block start
block start
block start
block start
block start
block start
block start
block start
block start
block start
block start
block start
block start
block start
block start
block start
block start
block start
block start
block start
block start
block start
block start
block start
block start
block start
block start
block start
block start
block start
block start
block start
block start
block start
block start
block start
block start
block start
block start
block start
block start
block start
block start
block start
block start
block start
block start
block start
block start
block start
block start
block start
block start
block start
block start
block start
block start
block start
block start
block start
block start
block start
block start
block start
block start
block start
block start
block start
block start
block start
block start
block start
block start
block start
block start
block start
block start
block start
block start
block start
block start
block start
block start
block start
block start
block start
block start
block start
block start
block start
block start
block start
block start
block start
block start
block start
block start
block start
block start
block start
block start
block start
block start
block start
block start
block start
block start
block start
block start
block start
block start
block start
block start
block start
block start
block start
block start
block start
block start
block start
block start
block start
block start
block start
block start
block start
block start
block start
block start
block start
block start
block start
block start
block start
block start
block start
block start
block start
block start
block start
block start
block start
block start
block start
block start
block start
block start
block start
block start
block start
block start
block start
block start
block start
block start
block start
block start
block start
block start
block start
block start
block start
block start
block start
block start
block start
block start
block start
block start
block start
block start
block start
block start
block start
block start
block start
block start
block start
origin_offset: 1 
rest_offset: 0 
cancoallocate : 0 
block start
block start
block start
block start
block start
block start
block start
block start
block start
block start
block start
block start
block start
block start
block start
block start
block start
block start
block start
block start
block start
block start
block start
block start
block start
block start
block start
block start
block start
block start
block start
block start
block start
block start
block start
block start
block start
block start
block start
block start
block start
block start
block start
block start
block start
block start
block start
block start
block start
block start
block start
block start
block start
block start
block start
block start
block start
block start
block start
block start
block start
block start
block start
block start
block start
block start
block start
block start
block start
block start
block start
block start
block start
block start
block start
block start
block start
block start
block start
block start
block start
block start
block start
block start
block start
block start
block start
block start
block start
block start
block start
block start
block start
block start
block start
block start
block start
block start
block start
block start
block start
block start
block start
block start
block start
block start
block start
block start
block start
block start
block start
block start
block start
block start
block start
block start
block start
block start
block start
block start
block start
block start
block start
block start
block start
block start
block start
block start
block start
block start
block start
block start
block start
block start
block start
block start
block start
block start
block start
block start
block start
block start
block start
block start
block start
block start
block start
block start
block start
block start
block start
block start
block start
block start
block start
block start
block start
block start
block start
block start
block start
block start
block start
block start
block start
block start
block start
block start
block start
block start
block start
block start
block start
block start
block start
block start
block start
block start
block start
block start
block start
block start
block start
block start
block start
block start
block start
block start
block start
block start
block start
block start
block start
block start
block start
block start
block start
block start
block start
block start
block start
block start
block start
block start
block start
block start
block start
block start
block start
block start
block start
block start
block start
block start
block start
block start
block start
block start
block start
block start
block start
block start
block start
block start
block start
block start
block start
block start
block start
block start
block start
block start
block start
block start
block start
block start
block start
block start
block start
block start
block start
block start
block start
block start
block start
block start
block start
block start
block start
block start
block start
block start
block start
block start
block start
block start
block start
block start
block start
block start
block start
block start
block start
block start
block start
block start
block start
block start
block start
block start
block start
block start
block start
block start
block start
block start
block start
block start
block start
block start
block start
block start
block start
block start
block start
block start
block start
block start
block start
block start
block start
block start
block start
block start
block start
block start
block start
block start
block start
block start
block start
block start
block start
block start
block start
block start
block start
block start
block start
block start
block start
block start
block start
block start
block start
block start
block start
block start
block start
block start
block start
block start
block start
block start
block start
block start
block start
block start
block start
block start
block start
block start
block start
block start
block start
block start
block start
block start
block start
block start
block start
block start
block start
block start
block start
block start
block start
block start
block start
block start
block start
block start
block start
block start
block start
block start
block start
block start
block start
block start
block start
block start
block start
block start
block start
block start
block start
block start
block start
block start
block start
block start
block start
block start
block start
block start
origin_offset: 0 
rest_offset: 1 
cancoallocate : 0 
origin_offset: 0 
rest_offset: 1 
cancoallocate : 0 
origin_offset: 1 
rest_offset: 0 
cancoallocate : 0 
origin_offset: 1 
rest_offset: 0 
cancoallocate : 0 
block start
block start
block start
block start
block start
block start
block start
block start
block start
block start
block start
block start
block start
block start
block start
block start
block start
block start
block start
block start
block start
block start
block start
block start
block start
block start
block start
block start
block start
block start
block start
block start
block start
block start
block start
block start
block start
block start
block start
block start
block start
block start
block start
block start
block start
block start
block start
block start
block start
block start
block start
block start
block start
block start
block start
block start
block start
block start
block start
block start
block start
block start
block start
block start
block start
block start
block start
block start
block start
block start
block start
block start
block start
block start
block start
block start
block start
block start
block start
block start
block start
block start
block start
block start
block start
block start
block start
block start
block start
block start
block start
block start
block start
block start
block start
block start
block start
block start
block start
block start
block start
block start
block start
block start
block start
block start
block start
block start
block start
block start
block start
block start
block start
block start
block start
block start
block start
block start
block start
block start
block start
block start
block start
block start
block start
block start
block start
block start
block start
block start
block start
block start
block start
block start
block start
block start
block start
block start
block start
block start
block start
block start
block start
block start
block start
block start
block start
block start
block start
block start
block start
block start
block start
block start
block start
block start
block start
block start
block start
block start
block start
block start
block start
block start
block start
block start
block start
block start
block start
block start
block start
block start
block start
block start
block start
block start
block start
block start
block start
block start
block start
block start
block start
block start
block start
block start
block start
block start
block start
block start
block start
block start
block start
block start
block start
block start
block start
block start
block start
block start
block start
block start
block start
block start
block start
block start
block start
block start
block start
block start
block start
block start
block start
block start
block start
block start
block start
block start
block start
block start
block start
block start
block start
block start
block start
block start
block start
block start
block start
block start
block start
block start
block start
block start
block start
block start
block start
block start
block start
block start
block start
block start
block start
block start
block start
block start
block start
block start
block start
block start
block start
block start
block start
block start
block start
block start
block start
block start
block start
block start
block start
block start
block start
block start
block start
block start
block start
block start
block start
block start
block start
block start
block start
block start
block start
block start
block start
block start
block start
block start
block start
block start
block start
block start
block start
block start
block start
block start
block start
block start
block start
block start
block start
block start
block start
block start
block start
block start
block start
block start
block start
block start
block start
block start
block start
block start
block start
block start
block start
block start
block start
block start
block start
block start
block start
block start
block start
block start
block start
block start
block start
block start
block start
block start
block start
block start
block start
block start
block start
block start
block start
block start
block start
block start
block start
block start
block start
block start
block start
block start
block start
block start
block start
block start
block start
block start
block start
block start
block start
block start
block start
block start
block start
block start
block start
block start
block start
block start
block start
block start
block start
block start
block start
block start
block start
block start
block start
block start
block start
block start
block start
block start
block start
block start
block start
block start
block start
block start
block start
block start
block start
block start
block start
block start
block start
block start
block start
block start
block start
block start
block start
block start
block start
block start
block start
block start
block start
block start
block start
block start
block start
block start
block start
block start
block start
block start
block start
block start
block start
block start
block start
block start
block start
block start
block start
block start
block start
block start
block start
block start
block start
block start
block start
block start
block start
block start
block start
block start
block start
block start
block start
block start
block start
block start
block start
block start
block start
block start
block start
block start
origin_offset: 1 
rest_offset: 0 
cancoallocate : 0 
block start
block start
block start
block start
block start
block start
block start
block start
block start
block start
block start
block start
block start
block start
block start
block start
origin_offset: 1 
rest_offset: 0 
cancoallocate : 0 
block start
block start
block start
block start
block start
block start
block start
block start
block start
block start
block start
block start
block start
block start
block start
block start
block start
block start
block start
block start
block start
block start
block start
block start
block start
block start
block start
block start
block start
block start
block start
block start
block start
block start
block start
block start
block start
block start
block start
block start
block start
block start
block start
block start
block start
block start
block start
block start
block start
block start
block start
block start
block start
block start
block start
block start
block start
block start
block start
block start
block start
block start
block start
block start
block start
block start
block start
block start
block start
block start
block start
block start
block start
block start
block start
block start
block start
block start
block start
block start
block start
block start
block start
block start
block start
block start
block start
block start
block start
block start
block start
block start
block start
block start
block start
block start
block start
block start
block start
block start
block start
block start
block start
block start
block start
block start
block start
block start
block start
block start
block start
block start
block start
block start
block start
block start
block start
block start
block start
block start
block start
block start
block start
block start
block start
block start
block start
block start
block start
block start
block start
block start
block start
block start
block start
block start
block start
block start
block start
block start
block start
block start
block start
block start
block start
block start
block start
block start
block start
block start
block start
block start
block start
block start
block start
block start
block start
block start
block start
block start
block start
block start
block start
block start
block start
block start
block start
block start
block start
block start
block start
block start
block start
block start
block start
block start
block start
block start
block start
block start
block start
block start
block start
block start
block start
block start
block start
block start
block start
block start
block start
block start
block start
block start
block start
block start
block start
block start
block start
block start
block start
block start
block start
block start
block start
block start
block start
block start
block start
block start
block start
block start
block start
block start
block start
block start
block start
block start
block start
block start
block start
block start
block start
block start
block start
block start
block start
block start
block start
block start
block start
block start
block start
block start
block start
block start
block start
block start
block start
block start
block start
block start
block start
block start
block start
block start
block start
block start
block start
block start
block start
block start
block start
block start
block start
block start
block start
block start
block start
block start
block start
block start
block start
block start
block start
block start
block start
block start
block start
block start
block start
block start
block start
block start
block start
block start
block start
block start
block start
block start
block start
block start
block start
block start
block start
block start
block start
block start
block start
block start
block start
block start
block start
block start
block start
block start
block start
block start
block start
block start
block start
block start
block start
block start
block start
block start
block start
block start
block start
block start
block start
block start
block start
block start
block start
block start
block start
block start
block start
block start
block start
block start
block start
block start
block start
block start
block start
block start
block start
block start
block start
block start
block start
block start
block start
block start
block start
block start
block start
block start
block start
block start
block start
block start
block start
block start
block start
block start
block start
block start
block start
block start
block start
block start
block start
block start
block start
block start
block start
block start
block start
block start
block start
block start
block start
block start
block start
block start
block start
block start
block start
block start
block start
block start
block start
block start
block start
block start
block start
block start
block start
block start
block start
block start
block start
block start
block start
block start
block start
block start
block start
block start
block start
block start
block start
block start
block start
block start
block start
block start
block start
block start
block start
block start
block start
block start
block start
block start
block start
block start
block start
block start
block start
block start
block start
block start
block start
block start
block start
block start
block start
block start
block start
block start
block start
block start
block start
block start
block start
block start
block start
block start
block start
block start
block start
block start
block start
block start
block start
block start
block start
block start
block start
block start
block start
block start
block start
block start
block start
block start
block start
block start
block start
block start
block start
block start
block start
block start
block start
block start
block start
block start
block start
block start
block start
block start
block start
block start
block start
block start
block start
block start
block start
block start
block start
block start
block start
block start
block start
block start
block start
block start
block start
block start
block start
block start
block start
block start
block start
block start
block start
block start
block start
block start
block start
block start
block start
block start
block start
block start
block start
block start
block start
block start
block start
block start
block start
block start
block start
block start
block start
block start
block start
block start
block start
block start
block start
block start
block start
block start
origin_offset: 0 
rest_offset: 1 
cancoallocate : 0 
block start
block start
block start
block start
block start
block start
block start
block start
block start
block start
block start
block start
block start
block start
block start
block start
origin_offset: 1 
rest_offset: 0 
cancoallocate : 0 
block start
block start
block start
block start
block start
block start
block start
block start
block start
block start
block start
block start
block start
block start
block start
block start
block start
block start
block start
block start
block start
block start
block start
block start
block start
block start
block start
block start
block start
block start
block start
block start
block start
block start
block start
block start
block start
block start
block start
block start
block start
block start
block start
block start
block start
block start
block start
block start
block start
block start
block start
block start
block start
block start
block start
block start
block start
block start
block start
block start
block start
block start
block start
block start
block start
block start
block start
block start
block start
block start
block start
block start
origin_offset: 0 
rest_offset: 1 
cancoallocate : 0 
block start
block start
block start
block start
block start
block start
block start
block start
block start
block start
block start
block start
block start
block start
block start
block start
block start
block start
block start
block start
block start
block start
block start
block start
block start
block start
block start
block start
block start
block start
block start
block start
block start
block start
block start
block start
block start
block start
block start
block start
block start
block start
block start
block start
block start
block start
block start
block start
block start
block start
block start
block start
block start
block start
block start
block start
block start
block start
block start
block start
block start
block start
block start
block start
block start
block start
block start
block start
block start
block start
block start
block start
block start
block start
block start
block start
block start
block start
block start
block start
block start
block start
block start
block start
block start
block start
block start
block start
block start
block start
block start
block start
block start
block start
block start
block start
block start
block start
block start
block start
block start
block start
block start
block start
block start
block start
block start
block start
block start
block start
block start
block start
block start
block start
block start
block start
block start
block start
block start
block start
block start
block start
block start
block start
block start
block start
block start
block start
block start
block start
block start
block start
block start
block start
block start
block start
block start
block start
block start
block start
block start
block start
block start
block start
block start
block start
block start
block start
block start
block start
block start
block start
block start
block start
block start
block start
block start
block start
block start
block start
block start
block start
block start
block start
block start
block start
block start
block start
block start
block start
block start
block start
block start
block start
block start
block start
block start
block start
block start
block start
block start
block start
block start
block start
block start
block start
block start
block start
block start
block start
block start
block start
block start
block start
block start
block start
block start
block start
block start
block start
block start
block start
block start
block start
block start
block start
block start
block start
block start
block start
block start
block start
block start
block start
block start
block start
block start
block start
block start
block start
block start
block start
block start
block start
block start
block start
block start
block start
block start
block start
block start
block start
block start
block start
block start
block start
block start
block start
block start
block start
block start
block start
block start
block start
block start
block start
block start
block start
block start
block start
block start
block start
block start
block start
block start
block start
block start
block start
block start
block start
block start
block start
block start
block start
block start
block start
block start
block start
block start
block start
block start
block start
block start
block start
block start
block start
block start
block start
block start
block start
block start
block start
block start
block start
block start
block start
block start
block start
block start
block start
block start
block start
block start
block start
block start
block start
block start
block start
block start
block start
block start
block start
block start
block start
block start
block start
block start
block start
block start
block start
block start
block start
block start
block start
block start
block start
block start
block start
block start
block start
block start
block start
block start
block start
block start
block start
block start
block start
block start
block start
block start
block start
block start
block start
block start
block start
block start
block start
block start
block start
block start
block start
block start
block start
block start
block start
block start
block start
block start
block start
block start
block start
block start
block start
block start
block start
block start
block start
block start
block start
block start
block start
block start
block start
block start
block start
block start
block start
block start
block start
block start
block start
block start
block start
block start
block start
block start
block start
block start
block start
block start
block start
block start
block start
block start
block start
block start
block start
block start
block start
block start
block start
block start
block start
block start
block start
block start
block start
block start
block start
block start
block start
block start
block start
block start
block start
block start
block start
block start
block start
block start
block start
block start
block start
block start
block start
block start
block start
block start
block start
block start
block start
block start
block start
block start
block start
block start
block start
block start
block start
block start
block start
block start
block start
block start
block start
block start
block start
block start
block start
block start
block start
block start
block start
block start
block start
block start
block start
block start
block start
block start
block start
block start
block start
block start
block start
block start
block start
block start
block start
block start
block start
block start
block start
block start
block start
block start
block start
block start
block start
block start
block start
block start
block start
block start
block start
block start
block start
block start
block start
block start
block start
block start
block start
block start
block start
block start
block start
block start
block start
block start
block start
block start
block start
block start
block start
block start
block start
block start
block start
block start
block start
block start
block start
block start
block start
block start
block start
block start
block start
block start
block start
block start
block start
block start
block start
block start
block start
block start
block start
block start
block start
block start
block start
block start
block start
block start
block start
block start
block start
block start
block start
block start
block start
block start
block start
block start
block start
block start
block start
block start
block start
block start
block start
block start
block start
block start
block start
block start
block start
block start
block start
block start
block start
block start
block start
block start
block start
block start
block start
block start
block start
block start
block start
block start
block start
block start
block start
block start
block start
block start
block start
block start
block start
block start
block start
block start
block start
block start
block start
block start
block start
block start
block start
block start
block start
block start
block start
block start
block start
block start
block start
block start
block start
block start
block start
block start
block start
block start
block start
block start
block start
block start
block start
block start
block start
block start
block start
block start
block start
block start
block start
block start
block start
block start
block start
block start
block start
block start
block start
block start
block start
block start
block start
block start
block start
block start
block start
block start
block start
block start
block start
block start
block start
block start
block start
block start
block start
block start
block start
block start
block start
block start
block start
block start
block start
block start
block start
block start
block start
block start
block start
block start
block start
block start
block start
block start
block start
block start
block start
block start
block start
block start
block start
block start
block start
block start
block start
block start
block start
block start
block start
block start
block start
block start
block start
block start
block start
block start
block start
block start
block start
block start
block start
block start
block start
block start
block start
block start
block start
block start
block start
block start
block start
block start
block start
block start
block start
block start
block start
block start
block start
block start
block start
block start
block start
block start
block start
block start
block start
block start
block start
block start
block start
block start
block start
block start
block start
block start
block start
block start
block start
block start
block start
block start
block start
block start
block start
block start
block start
block start
block start
block start
block start
block start
block start
block start
block start
block start
block start
block start
block start
block start
block start
block start
block start
block start
block start
block start
block start
block start
block start
block start
block start
block start
block start
block start
block start
block start
block start
block start
block start
block start
block start
block start
block start
block start
block start
block start
block start
block start
block start
block start
block start
block start
block start
block start
block start
block start
block start
block start
block start
block start
block start
block start
block start
block start
block start
block start
block start
block start
block start
block start
block start
block start
block start
block start
block start
block start
block start
block start
block start
block start
block start
block start
block start
block start
block start
block start
block start
block start
block start
block start
block start
block start
block start
block start
block start
block start
block start
block start
block start
block start
block start
block start
block start
block start
block start
block start
block start
block start
block start
block start
block start
block start
block start
block start
block start
block start
block start
block start
block start
block start
block start
block start
block start
block start
block start
origin_offset: 0 
rest_offset: 1 
cancoallocate : 0 
block start
block start
block start
block start
block start
block start
block start
block start
origin_offset: 1 
rest_offset: 0 
cancoallocate : 0 
block start
block start
block start
block start
block start
block start
block start
block start
origin_offset: 0 
rest_offset: 1 
cancoallocate : 0 
block start
block start
block start
block start
block start
block start
block start
block start
block start
block start
block start
block start
block start
block start
block start
block start
block start
block start
block start
block start
block start
block start
block start
block start
block start
block start
block start
block start
block start
block start
block start
block start
block start
block start
block start
block start
block start
block start
block start
block start
block start
block start
block start
block start
block start
block start
block start
block start
block start
block start
block start
block start
block start
block start
block start
block start
block start
block start
block start
block start
block start
block start
block start
block start
block start
block start
block start
block start
block start
block start
block start
block start
block start
block start
block start
block start
block start
block start
block start
block start
block start
block start
block start
block start
block start
block start
block start
block start
block start
block start
block start
block start
block start
block start
block start
block start
block start
block start
block start
block start
block start
block start
block start
block start
block start
block start
block start
block start
block start
block start
block start
block start
block start
block start
block start
block start
block start
block start
block start
block start
block start
block start
block start
block start
block start
block start
block start
block start
block start
block start
block start
block start
block start
block start
block start
block start
block start
block start
block start
block start
block start
block start
block start
block start
block start
block start
block start
block start
block start
block start
block start
block start
block start
block start
block start
block start
block start
block start
block start
block start
block start
block start
block start
block start
block start
block start
block start
block start
block start
block start
block start
block start
block start
block start
block start
block start
block start
block start
block start
block start
block start
block start
block start
block start
block start
block start
block start
block start
block start
block start
block start
block start
block start
block start
block start
block start
block start
block start
block start
block start
origin_offset: 0 
rest_offset: 1 
cancoallocate : 0 
block start
block start
block start
block start
block start
block start
block start
block start
block start
block start
block start
block start
block start
block start
block start
block start
block start
block start
block start
block start
block start
block start
block start
block start
block start
block start
block start
block start
block start
block start
block start
block start
origin_offset: 1 
rest_offset: 0 
cancoallocate : 0 
block start
block start
block start
block start
block start
block start
block start
block start
origin_offset: 0 
rest_offset: 1 
cancoallocate : 0 
block start
block start
block start
block start
block start
block start
block start
block start
origin_offset: 1 
rest_offset: 0 
cancoallocate : 0 
block start
block start
block start
block start
block start
block start
block start
block start
block start
block start
block start
block start
block start
block start
block start
block start
origin_offset: 0 
rest_offset: 1 
cancoallocate : 0 
block start
block start
block start
block start
block start
block start
block start
block start
origin_offset: 1 
rest_offset: 0 
cancoallocate : 0 
block start
block start
block start
block start
block start
block start
block start
block start
origin_offset: 0 
rest_offset: 1 
cancoallocate : 0 
block start
block start
avoidable miss
compressed pass
get num valid pass
block start
block start
block start
block start
block start
block start
block start
block start
block start
block start
block start
block start
block start
block start
block start
block start
origin_offset: 0 
rest_offset: 1 
cancoallocate : 0 
block start
block start
block start
block start
block start
block start
block start
block start
origin_offset: 1 
rest_offset: 0 
cancoallocate : 0 
block start
block start
avoidable miss
compressed pass
get num valid pass
block start
block start
block start
block start
block start
block start
block start
block start
origin_offset: 0 
rest_offset: 1 
cancoallocate : 0 
block start
block start
block start
block start
block start
block start
block start
block start
origin_offset: 0 
rest_offset: 1 
cancoallocate : 0 
block start
block start
block start
block start
block start
block start
block start
block start
block start
block start
block start
avoidable miss
compressed pass
get num valid pass
origin_offset: 1 
rest_offset: 0 
cancoallocate : 0 
block start
block start
block start
block start
block start
block start
block start
block start
block start
block start
block start
block start
block start
block start
block start
block start
block start
block start
block start
block start
block start
block start
block start
block start
block start
block start
block start
block start
block start
block start
block start
block start
block start
block start
block start
block start
block start
block start
block start
block start
block start
block start
block start
block start
block start
block start
block start
block start
block start
block start
block start
block start
block start
block start
block start
block start
block start
block start
block start
block start
block start
block start
block start
block start
block start
block start
block start
block start
block start
block start
block start
block start
block start
block start
block start
block start
block start
block start
block start
block start
block start
block start
block start
block start
block start
block start
block start
block start
block start
block start
block start
block start
block start
block start
block start
block start
block start
block start
block start
block start
block start
block start
block start
block start
block start
block start
block start
block start
block start
block start
block start
block start
block start
block start
block start
block start
block start
block start
block start
block start
block start
block start
block start
block start
block start
block start
block start
block start
block start
block start
block start
block start
block start
block start
block start
block start
block start
block start
block start
block start
block start
block start
block start
block start
origin_offset: 1 
rest_offset: 0 
cancoallocate : 0 
block start
block start
block start
block start
block start
block start
block start
block start
block start
block start
block start
block start
block start
block start
block start
block start
origin_offset: 0 
rest_offset: 1 
cancoallocate : 0 
block start
block start
block start
block start
block start
block start
block start
block start
block start
block start
block start
block start
block start
block start
block start
block start
block start
block start
block start
block start
block start
block start
block start
block start
block start
block start
block start
block start
block start
block start
block start
block start
block start
block start
block start
block start
block start
block start
block start
block start
block start
block start
block start
block start
block start
block start
block start
block start
block start
block start
block start
block start
block start
block start
block start
block start
block start
block start
block start
block start
block start
block start
block start
block start
block start
block start
block start
block start
block start
block start
block start
block start
block start
block start
block start
block start
block start
block start
block start
block start
block start
block start
block start
block start
block start
block start
block start
block start
origin_offset: 1 
rest_offset: 0 
cancoallocate : 0 
block start
block start
block start
block start
block start
block start
block start
block start
block start
block start
block start
block start
block start
block start
block start
block start
block start
block start
block start
block start
block start
block start
block start
block start
block start
block start
block start
block start
block start
block start
block start
block start
block start
block start
block start
block start
block start
block start
block start
block start
block start
block start
block start
block start
block start
block start
block start
block start
block start
block start
block start
block start
block start
block start
block start
block start
block start
block start
block start
block start
block start
block start
block start
block start
block start
block start
block start
block start
block start
block start
block start
block start
block start
block start
block start
block start
block start
block start
block start
block start
block start
block start
block start
block start
block start
block start
block start
block start
block start
block start
block start
block start
block start
block start
block start
block start
block start
block start
block start
block start
block start
block start
block start
block start
block start
block start
block start
block start
block start
block start
block start
block start
block start
block start
block start
block start
block start
block start
block start
block start
block start
block start
block start
block start
block start
block start
block start
block start
block start
block start
block start
block start
block start
block start
block start
block start
block start
block start
block start
block start
block start
block start
block start
block start
block start
block start
block start
block start
block start
block start
block start
block start
block start
block start
block start
block start
block start
block start
block start
block start
block start
block start
block start
block start
block start
block start
block start
block start
block start
block start
block start
block start
block start
block start
block start
block start
block start
block start
block start
block start
block start
block start
block start
block start
block start
block start
block start
block start
block start
block start
block start
block start
block start
block start
block start
block start
block start
block start
block start
block start
block start
block start
block start
block start
block start
block start
block start
block start
block start
block start
block start
block start
block start
block start
block start
block start
block start
block start
block start
block start
block start
block start
block start
block start
block start
block start
block start
block start
block start
block start
block start
block start
block start
block start
block start
block start
block start
block start
block start
block start
block start
block start
block start
block start
block start
block start
block start
block start
block start
block start
block start
block start
block start
block start
block start
block start
block start
block start
block start
block start
block start
block start
block start
block start
block start
block start
block start
block start
block start
block start
block start
block start
block start
block start
block start
block start
block start
block start
block start
block start
block start
block start
block start
block start
block start
block start
block start
block start
origin_offset: 0 
rest_offset: 1 
cancoallocate : 0 
block start
block start
block start
block start
block start
block start
block start
block start
block start
block start
block start
block start
block start
block start
block start
block start
block start
block start
block start
block start
block start
block start
block start
block start
block start
block start
block start
block start
block start
block start
block start
block start
block start
block start
block start
block start
block start
block start
block start
block start
block start
block start
block start
block start
block start
block start
block start
block start
block start
block start
block start
block start
block start
block start
block start
block start
block start
block start
block start
block start
block start
block start
block start
block start
block start
block start
block start
block start
block start
block start
block start
block start
block start
block start
block start
block start
block start
block start
block start
block start
block start
block start
block start
block start
block start
block start
block start
block start
origin_offset: 0 
rest_offset: 1 
cancoallocate : 0 
block start
block start
avoidable miss
compressed pass
get num valid pass
origin_offset: 1 
rest_offset: 0 
cancoallocate : 0 
block start
block start
block start
block start
block start
block start
block start
block start
origin_offset: 1 
rest_offset: 0 
cancoallocate : 0 
block start
block start
block start
block start
block start
block start
block start
block start
block start
block start
block start
block start
block start
block start
block start
block start
block start
block start
block start
block start
block start
block start
block start
block start
origin_offset: 1 
rest_offset: 0 
cancoallocate : 0 
block start
block start
block start
block start
block start
block start
block start
block start
block start
block start
block start
avoidable miss
compressed pass
get num valid pass
block start
block start
block start
block start
block start
block start
block start
block start
block start
block start
block start
block start
block start
block start
block start
block start
block start
block start
block start
block start
block start
block start
block start
block start
block start
block start
block start
block start
block start
block start
block start
block start
block start
block start
block start
block start
block start
block start
block start
block start
block start
block start
block start
block start
block start
block start
block start
block start
block start
block start
block start
block start
block start
block start
block start
block start
block start
block start
block start
block start
block start
block start
block start
block start
origin_offset: 1 
rest_offset: 0 
cancoallocate : 0 
block start
block start
block start
block start
block start
block start
block start
block start
origin_offset: 1 
rest_offset: 0 
cancoallocate : 0 
block start
block start
block start
block start
block start
block start
block start
block start
origin_offset: 0 
rest_offset: 1 
cancoallocate : 0 
block start
block start
block start
block start
block start
block start
block start
block start
origin_offset: 0 
rest_offset: 1 
cancoallocate : 0 
block start
block start
block start
block start
block start
block start
block start
block start
origin_offset: 1 
rest_offset: 0 
cancoallocate : 0 
block start
block start
block start
block start
block start
block start
block start
block start
block start
block start
block start
block start
block start
block start
block start
block start
block start
block start
block start
block start
block start
block start
block start
block start
block start
block start
block start
block start
block start
block start
block start
block start
block start
block start
block start
block start
block start
block start
block start
block start
origin_offset: 0 
rest_offset: 1 
cancoallocate : 0 
block start
block start
block start
block start
block start
block start
block start
block start
origin_offset: 0 
rest_offset: 1 
cancoallocate : 0 
block start
block start
block start
avoidable miss
compressed pass
get num valid pass
origin_offset: 1 
rest_offset: 0 
cancoallocate : 0 
block start
block start
block start
block start
block start
block start
block start
block start
origin_offset: 0 
rest_offset: 1 
cancoallocate : 0 
block start
block start
block start
block start
block start
block start
block start
block start
origin_offset: 1 
rest_offset: 0 
cancoallocate : 0 
block start
block start
block start
block start
block start
block start
block start
block start
origin_offset: 0 
rest_offset: 1 
cancoallocate : 0 
block start
block start
block start
block start
block start
block start
block start
block start
origin_offset: 1 
rest_offset: 0 
cancoallocate : 0 
block start
block start
block start
block start
block start
block start
block start
block start
origin_offset: 0 
rest_offset: 1 
cancoallocate : 0 
block start
block start
block start
block start
block start
block start
block start
block start
origin_offset: 1 
rest_offset: 0 
cancoallocate : 0 
block start
block start
block start
block start
block start
block start
block start
block start
origin_offset: 0 
rest_offset: 1 
cancoallocate : 0 
block start
block start
block start
block start
block start
block start
block start
block start
block start
block start
block start
block start
block start
block start
block start
block start
block start
block start
block start
block start
block start
block start
block start
block start
block start
block start
block start
block start
block start
block start
block start
block start
block start
block start
block start
block start
block start
block start
block start
block start
block start
block start
block start
block start
block start
block start
block start
block start
block start
block start
block start
block start
block start
block start
block start
block start
block start
block start
block start
avoidable miss
compressed pass
get num valid pass
block start
block start
block start
block start
block start
block start
block start
block start
block start
block start
block start
block start
block start
block start
block start
block start
block start
block start
block start
block start
block start
block start
block start
block start
origin_offset: 1 
rest_offset: 0 
cancoallocate : 0 
block start
block start
block start
block start
block start
block start
block start
block start
block start
block start
block start
block start
block start
block start
block start
block start
block start
block start
[...]
block start
block start
block start
block start
block start
origin_offset: 1 
rest_offset: 0 
cancoallocate : 0 
origin_offset: 1 
rest_offset: 0 
cancoallocate : 0 
block start
block start
block start
block start
block start
block start
block start
block start
origin_offset: 0 
rest_offset: 1 
cancoallocate : 0 
avoided miss
block start
block start
block start
block start
block start
block start
block start
block start
block start
block start
block start
block start
block start
block start
block start
block start
block start
block start
block start
block start
block start
block start
block start
block start
block start
block start
block start
block start
block start
block start
block start
block start
origin_offset: 0 
rest_offset: 1 
cancoallocate : 0 
origin_offset: 0 
rest_offset: 1 
cancoallocate : 1 
penalized hit
block start
block start
block start
block start
block start
block start
block start
block start
block start
block start
block start
block start
block start
block start
block start
block start
origin_offset: 0 
rest_offset: 1 
cancoallocate : 0 
block start
block start
block start
block start
block start
block start
block start
block start
block start
block start
block start
block start
block start
block start
block start
block start
block start
block start
block start
block start
block start
block start
block start
block start
origin_offset: 0 
rest_offset: 1 
cancoallocate : 0 
block start
block start
block start
block start
block start
block start
block start
block start
block start
block start
block start
block start
block start
block start
block start
block start
block start
block start
block start
block start
block start
block start
block start
block start
origin_offset: 0 
rest_offset: 1 
cancoallocate : 0 
avoided miss
block start
block start
block start
avoidable miss
block start
block start
block start
block start
block start
block start
block start
block start
block start
block start
block start
block start
block start
block start
block start
block start
block start
block start
block start
block start
block start
block start
block start
block start
block start
block start
block start
block start
block start
block start
block start
block start
avoidable miss
block start
block start
block start
block start
block start
block start
block start
block start
block start
block start
block start
avoidable miss
block start
block start
block start
block start
block start
block start
block start
block start
block start
block start
origin_offset: 0 
rest_offset: 1 
cancoallocate : 0 
avoided miss
origin_offset: 0 
rest_offset: 1 
cancoallocate : 0 
avoided miss
origin_offset: 0 
rest_offset: 1 
cancoallocate : 0 
avoided miss
origin_offset: 0 
rest_offset: 1 
cancoallocate : 0 
avoided miss
block start
block start
block start
block start
block start
block start
block start
block start
block start
block start
block start
block start
block start
block start
block start
block start
block start
block start
block start
block start
block start
block start
block start
block start
block start
block start
block start
block start
block start
avoidable miss
block start
block start
block start
block start
block start
block start
block start
block start
block start
block start
block start
block start
block start
block start
block start
block start
block start
block start
block start
origin_offset: 1 
rest_offset: 0 
cancoallocate : 0 
avoided miss
origin_offset: 1 
rest_offset: 0 
cancoallocate : 1 
penalized hit
block start
block start
block start
block start
block start
block start
block start
block start
block start
block start
block start
block start
block start
avoidable miss
block start
block start
block start
block start
block start
block start
avoidable miss
block start
block start
block start
block start
block start
block start
block start
block start
block start
block start
block start
block start
block start
origin_offset: 1 
rest_offset: 0 
cancoallocate : 1 
penalized hit
block start
block start
block start
avoidable miss
block start
block start
block start
block start
block start
origin_offset: 0 
rest_offset: 1 
cancoallocate : 0 
avoided miss
origin_offset: 1 
rest_offset: 0 
cancoallocate : 0 
avoided miss
origin_offset: 1 
rest_offset: 0 
cancoallocate : 0 
avoided miss
block start
block start
block start
block start
block start
block start
block start
block start
origin_offset: 1 
rest_offset: 0 
cancoallocate : 0 
avoided miss
block start
block start
block start
block start
block start
block start
block start
block start
block start
block start
block start
block start
block start
block start
block start
block start
block start
block start
block start
block start
block start
block start
block start
block start
block start
block start
block start
block start
block start
block start
block start
block start
block start
block start
block start
block start
block start
block start
block start
block start
block start
block start
block start
block start
block start
block start
block start
block start
block start
block start
block start
block start
block start
block start
block start
block start
origin_offset: 0 
rest_offset: 1 
cancoallocate : 0 
avoided miss
origin_offset: 0 
rest_offset: 1 
cancoallocate : 1 
penalized hit
block start
block start
block start
block start
block start
block start
block start
block start
block start
block start
block start
block start
block start
block start
block start
block start
block start
block start
block start
block start
avoidable miss
block start
block start
block start
block start
block start
block start
block start
block start
block start
block start
block start
block start
block start
block start
block start
block start
block start
block start
block start
block start
block start
block start
block start
avoidable miss
block start
block start
block start
block start
block start
block start
block start
block start
block start
block start
block start
block start
block start
origin_offset: 1 
rest_offset: 0 
cancoallocate : 0 
avoided miss
origin_offset: 0 
rest_offset: 1 
cancoallocate : 0 
avoided miss
block start
block start
block start
avoidable miss
block start
block start
block start
block start
block start
origin_offset: 0 
rest_offset: 1 
cancoallocate : 0 
avoided miss
block start
block start
block start
block start
block start
block start
block start
block start
block start
block start
block start
block start
block start
block start
block start
block start
block start
block start
block start
block start
block start
block start
block start
block start
block start
block start
block start
block start
block start
block start
block start
block start
block start
block start
block start
block start
block start
block start
block start
block start
block start
block start
block start
block start
block start
block start
block start
block start
block start
block start
block start
avoidable miss
block start
block start
block start
block start
block start
block start
block start
block start
block start
block start
block start
block start
block start
block start
block start
avoidable miss
block start
block start
block start
block start
block start
block start
block start
block start
block start
block start
block start
block start
block start
block start
block start
block start
block start
avoidable miss
block start
block start
block start
block start
block start
block start
block start
block start
block start
block start
block start
block start
block start
block start
block start
block start
block start
block start
block start
block start
block start
block start
block start
block start
block start
block start
block start
block start
block start
block start
block start
block start
block start
block start
avoidable miss
block start
block start
block start
block start
block start
block start
block start
block start
block start
block start
block start
block start
block start
block start
block start
block start
block start
block start
block start
block start
block start
block start
block start
block start
block start
block start
block start
block start
block start
block start
block start
block start
block start
block start
block start
block start
block start
block start
block start
block start
block start
block start
block start
block start
block start
block start
block start
block start
block start
block start
block start
block start
block start
block start
block start
block start
block start
block start
block start
block start
block start
block start
block start
block start
block start
block start
block start
block start
block start
block start
block start
block start
block start
block start
block start
block start
block start
block start
block start
block start
block start
block start
block start
block start
block start
avoidable miss
block start
block start
block start
block start
block start
block start
block start
block start
block start
block start
block start
block start
block start
block start
block start
block start
block start
block start
block start
block start
block start
block start
block start
block start
block start
block start
block start
block start
block start
block start
origin_offset: 1 
rest_offset: 0 
cancoallocate : 0 
avoided miss
block start
block start
block start
block start
block start
block start
block start
block start
block start
block start
block start
avoidable miss
block start
block start
block start
block start
block start
block start
block start
block start
block start
block start
block start
block start
block start
block start
block start
block start
block start
block start
block start
block start
block start
block start
block start
block start
block start
block start
block start
block start
block start
origin_offset: 1 
rest_offset: 0 
cancoallocate : 0 
block start
block start
block start
block start
block start
avoidable miss
block start
block start
block start
origin_offset: 1 
rest_offset: 0 
cancoallocate : 0 
avoided miss
origin_offset: 1 
rest_offset: 0 
cancoallocate : 1 
penalized hit
origin_offset: 1 
rest_offset: 0 
cancoallocate : 0 
avoided miss
block start
block start
block start
block start
block start
block start
block start
block start
block start
block start
block start
block start
block start
block start
block start
block start
block start
block start
block start
block start
block start
block start
block start
block start
block start
block start
block start
block start
block start
block start
block start
block start
block start
block start
block start
block start
block start
block start
block start
block start
block start
block start
block start
block start
block start
block start
block start
block start
block start
block start
block start
block start
block start
block start
block start
block start
origin_offset: 0 
rest_offset: 1 
cancoallocate : 0 
avoided miss
origin_offset: 0 
rest_offset: 1 
cancoallocate : 0 
avoided miss
block start
block start
block start
avoidable miss
block start
block start
block start
block start
block start
block start
block start
block start
avoidable miss
block start
block start
block start
block start
block start
block start
block start
avoidable miss
block start
block start
block start
block start
block start
block start
block start
block start
block start
block start
avoidable miss
block start
block start
block start
block start
block start
block start
block start
block start
block start
block start
block start
block start
block start
block start
block start
block start
block start
block start
block start
block start
block start
block start
block start
block start
block start
block start
block start
block start
block start
block start
block start
block start
block start
block start
block start
block start
origin_offset: 1 
rest_offset: 0 
cancoallocate : 0 
origin_offset: 0 
rest_offset: 1 
cancoallocate : 0 
origin_offset: 0 
rest_offset: 1 
cancoallocate : 0 
avoided miss
block start
block start
block start
block start
block start
block start
block start
block start
origin_offset: 1 
rest_offset: 0 
cancoallocate : 0 
avoided miss
origin_offset: 1 
rest_offset: 0 
cancoallocate : 0 
avoided miss
origin_offset: 0 
rest_offset: 1 
cancoallocate : 0 
avoided miss
origin_offset: 0 
rest_offset: 1 
cancoallocate : 0 
avoided miss
block start
block start
block start
block start
block start
block start
block start
block start
block start
block start
block start
block start
block start
block start
block start
block start
block start
block start
block start
block start
block start
block start
block start
block start
origin_offset: 1 
rest_offset: 0 
cancoallocate : 0 
block start
block start
block start
block start
block start
block start
block start
block start
origin_offset: 0 
rest_offset: 1 
cancoallocate : 0 
avoided miss
origin_offset: 1 
rest_offset: 0 
cancoallocate : 0 
block start
block start
block start
block start
block start
block start
block start
block start
origin_offset: 1 
rest_offset: 0 
cancoallocate : 0 
block start
block start
block start
block start
block start
block start
block start
block start
block start
block start
block start
block start
avoidable miss
block start
block start
block start
block start
origin_offset: 1 
rest_offset: 0 
cancoallocate : 0 
avoided miss
block start
block start
block start
block start
block start
block start
block start
block start
block start
block start
block start
block start
block start
block start
block start
block start
origin_offset: 0 
rest_offset: 1 
cancoallocate : 0 
avoided miss
block start
block start
block start
block start
block start
block start
block start
block start
block start
block start
block start
block start
block start
block start
block start
block start
origin_offset: 0 
rest_offset: 1 
cancoallocate : 0 
block start
block start
block start
block start
avoidable miss
block start
block start
block start
block start
block start
block start
block start
block start
block start
block start
block start
block start
block start
block start
block start
block start
block start
block start
block start
block start
block start
block start
block start
block start
block start
block start
block start
block start
block start
block start
block start
block start
block start
block start
block start
block start
origin_offset: 0 
rest_offset: 1 
cancoallocate : 0 
avoided miss
block start
block start
block start
block start
avoidable miss
block start
block start
block start
block start
block start
block start
avoidable miss
block start
block start
block start
block start
block start
block start
block start
block start
block start
block start
block start
block start
block start
block start
block start
block start
block start
block start
block start
block start
block start
block start
block start
block start
block start
block start
avoidable miss
block start
block start
block start
block start
block start
block start
block start
block start
avoidable miss
block start
block start
block start
block start
block start
block start
block start
block start
block start
block start
block start
block start
block start
block start
block start
block start
block start
block start
block start
block start
origin_offset: 1 
rest_offset: 0 
cancoallocate : 0 
block start
block start
block start
block start
block start
block start
block start
block start
block start
block start
block start
block start
block start
block start
block start
block start
block start
block start
block start
block start
block start
block start
block start
block start
origin_offset: 1 
rest_offset: 0 
cancoallocate : 0 
avoided miss
block start
block start
block start
block start
block start
block start
block start
block start
block start
block start
block start
block start
avoidable miss
block start
block start
block start
block start
origin_offset: 1 
rest_offset: 0 
cancoallocate : 0 
avoided miss
block start
block start
block start
block start
block start
block start
block start
block start
block start
block start
block start
block start
block start
block start
block start
block start
block start
block start
block start
block start
block start
block start
block start
block start
block start
block start
block start
block start
block start
block start
block start
block start
origin_offset: 1 
rest_offset: 0 
cancoallocate : 0 
avoided miss
block start
block start
block start
block start
block start
block start
block start
block start
block start
block start
block start
block start
block start
block start
block start
block start
block start
block start
block start
block start
block start
block start
block start
block start
block start
block start
block start
block start
block start
block start
block start
block start
origin_offset: 1 
rest_offset: 0 
cancoallocate : 0 
avoided miss
block start
block start
block start
avoidable miss
block start
block start
block start
block start
block start
block start
block start
avoidable miss
block start
block start
block start
block start
block start
block start
block start
block start
block start
avoidable miss
block start
block start
block start
block start
block start
block start
block start
block start
block start
block start
block start
block start
block start
block start
block start
block start
block start
block start
block start
block start
block start
origin_offset: 0 
rest_offset: 1 
cancoallocate : 0 
avoided miss
block start
block start
block start
block start
block start
block start
block start
block start
block start
block start
block start
avoidable miss
block start
block start
block start
block start
block start
block start
block start
block start
block start
block start
block start
block start
block start
block start
block start
block start
block start
block start
block start
block start
block start
origin_offset: 1 
rest_offset: 0 
cancoallocate : 0 
avoided miss
origin_offset: 1 
rest_offset: 0 
cancoallocate : 0 
avoided miss
block start
block start
block start
block start
block start
block start
block start
block start
origin_offset: 1 
rest_offset: 0 
cancoallocate : 0 
avoided miss
block start
block start
block start
block start
block start
block start
block start
block start
block start
block start
block start
avoidable miss
block start
block start
block start
block start
block start
origin_offset: 1 
rest_offset: 0 
cancoallocate : 1 
penalized hit
origin_offset: 1 
rest_offset: 0 
cancoallocate : 0 
avoided miss
origin_offset: 0 
rest_offset: 1 
cancoallocate : 0 
avoided miss
origin_offset: 0 
rest_offset: 1 
cancoallocate : 0 
avoided miss
block start
block start
block start
block start
block start
block start
block start
block start
origin_offset: 0 
rest_offset: 1 
cancoallocate : 0 
avoided miss
block start
block start
block start
avoidable miss
block start
block start
block start
block start
block start
block start
block start
block start
block start
block start
block start
block start
block start
origin_offset: 1 
rest_offset: 0 
cancoallocate : 0 
avoided miss
block start
block start
block start
avoidable miss
block start
block start
block start
block start
block start
block start
block start
block start
block start
block start
block start
block start
block start
block start
block start
block start
block start
block start
block start
block start
block start
origin_offset: 0 
rest_offset: 1 
cancoallocate : 0 
avoided miss
origin_offset: 0 
rest_offset: 1 
cancoallocate : 0 
avoided miss
origin_offset: 0 
rest_offset: 1 
cancoallocate : 0 
avoided miss
block start
block start
block start
block start
block start
block start
block start
block start
block start
block start
block start
block start
block start
block start
block start
block start
origin_offset: 1 
rest_offset: 0 
cancoallocate : 0 
avoided miss
block start
block start
block start
block start
block start
block start
block start
block start
block start
block start
block start
block start
block start
block start
block start
block start
block start
block start
block start
block start
block start
block start
block start
block start
block start
block start
block start
block start
block start
block start
block start
block start
block start
block sta