Global frequency set at 1000000000000 ticks per second
gem5 Simulator System.  https://www.gem5.org
gem5 is copyrighted software; use the --copyright option for details.

gem5 version 22.0.0.2
gem5 compiled Dec  7 2024 18:21:18
gem5 started Dec  7 2024 18:24:55
gem5 executing on qstruct.ecn.purdue.edu, pid 33875
command line: ./build/ECE565-ARM/gem5.opt configs/spec/spec_se.py --cpu-type ArmMinorCPU --l1d_size=64kB --l1i_size=64kB --caches --l2cache --l2_compressor -b astar --maxinsts=10000000

**** REAL SIMULATION ****
gcp_factor = 0
gcp_factor = 0
gcp_factor = 0
avoidable miss
gcp_factor = 80
gcp_factor = 80
avoidable miss
gcp_factor = 160
gcp_factor = 160
gcp_factor = 160
gcp_factor = 160
gcp_factor = 160
avoidable miss
gcp_factor = 240
gcp_factor = 240
gcp_factor = 240
gcp_factor = 240
gcp_factor = 240
gcp_factor = 240
gcp_factor = 240
gcp_factor = 240
avoidable miss
gcp_factor = 320
gcp_factor = 320
gcp_factor = 320
gcp_factor = 320
gcp_factor = 320
gcp_factor = 320
avoidable miss
gcp_factor = 400
gcp_factor = 400
gcp_factor = 400
gcp_factor = 400
gcp_factor = 400
avoidable miss
gcp_factor = 480
gcp_factor = 480
gcp_factor = 480
gcp_factor = 480
gcp_factor = 480
avoidable miss
gcp_factor = 560
gcp_factor = 560
avoidable miss
gcp_factor = 640
gcp_factor = 640
avoidable miss
gcp_factor = 720
gcp_factor = 720
gcp_factor = 720
gcp_factor = 720
avoidable miss
gcp_factor = 800
avoidable miss
gcp_factor = 880
avoidable miss
gcp_factor = 960
gcp_factor = 960
avoidable miss
gcp_factor = 1040
gcp_factor = 1040
avoidable miss
gcp_factor = 1120
gcp_factor = 1120
gcp_factor = 1120
avoidable miss
gcp_factor = 1200
gcp_factor = 1200
gcp_factor = 1200
avoidable miss
gcp_factor = 1280
gcp_factor = 1280
gcp_factor = 1280
gcp_factor = 1280
gcp_factor = 1280
avoidable miss
gcp_factor = 1360
avoidable miss
gcp_factor = 1440
gcp_factor = 1440
gcp_factor = 1440
gcp_factor = 1440
gcp_factor = 1440
avoidable miss
gcp_factor = 1520
gcp_factor = 1520
avoidable miss
gcp_factor = 1600
gcp_factor = 1600
gcp_factor = 1600
avoidable miss
gcp_factor = 1680
gcp_factor = 1680
avoidable miss
gcp_factor = 1760
gcp_factor = 1760
gcp_factor = 1760
gcp_factor = 1760
gcp_factor = 1760
gcp_factor = 1760
gcp_factor = 1760
gcp_factor = 1760
avoidable miss
gcp_factor = 1840
avoidable miss
gcp_factor = 1920
avoidable miss
gcp_factor = 2000
avoidable miss
gcp_factor = 2080
gcp_factor = 2080
avoidable miss
gcp_factor = 2160
gcp_factor = 2160
gcp_factor = 2160
gcp_factor = 2160
avoidable miss
gcp_factor = 2240
gcp_factor = 2240
gcp_factor = 2240
gcp_factor = 2240
gcp_factor = 2240
gcp_factor = 2240
avoidable miss
gcp_factor = 2320
gcp_factor = 2320
avoidable miss
gcp_factor = 2400
gcp_factor = 2400
gcp_factor = 2400
gcp_factor = 2400
avoidable miss
gcp_factor = 2480
gcp_factor = 2480
avoidable miss
gcp_factor = 2560
gcp_factor = 2560
gcp_factor = 2560
gcp_factor = 2560
gcp_factor = 2560
gcp_factor = 2560
gcp_factor = 2560
avoidable miss
gcp_factor = 2640
gcp_factor = 2640
avoidable miss
gcp_factor = 2720
gcp_factor = 2720
gcp_factor = 2720
gcp_factor = 2720
avoidable miss
gcp_factor = 2800
gcp_factor = 2800
gcp_factor = 2800
gcp_factor = 2800
gcp_factor = 2800
gcp_factor = 2800
gcp_factor = 2800
avoidable miss
gcp_factor = 2880
gcp_factor = 2880
gcp_factor = 2880
avoidable miss
gcp_factor = 2960
gcp_factor = 2960
gcp_factor = 2960
avoidable miss
gcp_factor = 3040
gcp_factor = 3040
gcp_factor = 3040
gcp_factor = 3040
avoidable miss
gcp_factor = 3120
gcp_factor = 3120
gcp_factor = 3120
avoidable miss
gcp_factor = 3200
gcp_factor = 3200
avoidable miss
gcp_factor = 3280
avoidable miss
gcp_factor = 3360
gcp_factor = 3360
gcp_factor = 3360
gcp_factor = 3360
avoidable miss
gcp_factor = 3440
gcp_factor = 3440
avoidable miss
gcp_factor = 3520
gcp_factor = 3520
gcp_factor = 3520
gcp_factor = 3520
gcp_factor = 3520
gcp_factor = 3520
gcp_factor = 3520
avoidable miss
gcp_factor = 3600
gcp_factor = 3600
gcp_factor = 3600
avoidable miss
gcp_factor = 3680
gcp_factor = 3680
avoidable miss
gcp_factor = 3760
avoidable miss
gcp_factor = 3840
gcp_factor = 3840
gcp_factor = 3840
gcp_factor = 3840
avoidable miss
gcp_factor = 3920
gcp_factor = 3920
gcp_factor = 3920
avoidable miss
gcp_factor = 4000
gcp_factor = 4000
gcp_factor = 4000
gcp_factor = 4000
gcp_factor = 4000
avoidable miss
gcp_factor = 4080
avoidable miss
gcp_factor = 4160
gcp_factor = 4160
gcp_factor = 4160
gcp_factor = 4160
gcp_factor = 4160
avoidable miss
gcp_factor = 4240
avoidable miss
gcp_factor = 4320
gcp_factor = 4320
avoidable miss
gcp_factor = 4400
gcp_factor = 4400
avoidable miss
gcp_factor = 4480
gcp_factor = 4480
gcp_factor = 4480
gcp_factor = 4480
gcp_factor = 4480
gcp_factor = 4480
avoidable miss
gcp_factor = 4560
gcp_factor = 4560
gcp_factor = 4560
gcp_factor = 4560
gcp_factor = 4560
gcp_factor = 4560
avoidable miss
gcp_factor = 4640
gcp_factor = 4640
gcp_factor = 4640
avoidable miss
gcp_factor = 4720
gcp_factor = 4720
avoidable miss
gcp_factor = 4800
gcp_factor = 4800
gcp_factor = 4800
avoidable miss
gcp_factor = 4880
gcp_factor = 4880
gcp_factor = 4880
gcp_factor = 4880
avoidable miss
gcp_factor = 4960
gcp_factor = 4960
avoidable miss
gcp_factor = 5040
gcp_factor = 5040
avoidable miss
gcp_factor = 5120
gcp_factor = 5120
gcp_factor = 5120
gcp_factor = 5120
avoidable miss
gcp_factor = 5200
gcp_factor = 5200
gcp_factor = 5200
gcp_factor = 5200
avoidable miss
gcp_factor = 5280
gcp_factor = 5280
gcp_factor = 5280
gcp_factor = 5280
gcp_factor = 5280
avoidable miss
gcp_factor = 5360
gcp_factor = 5360
gcp_factor = 5360
gcp_factor = 5360
gcp_factor = 5360
gcp_factor = 5360
gcp_factor = 5360
gcp_factor = 5360
gcp_factor = 5360
gcp_factor = 5360
gcp_factor = 5360
gcp_factor = 5360
gcp_factor = 5360
gcp_factor = 5360
gcp_factor = 5360
gcp_factor = 5360
gcp_factor = 5360
gcp_factor = 5360
gcp_factor = 5360
gcp_factor = 5360
gcp_factor = 5360
gcp_factor = 5360
gcp_factor = 5360
gcp_factor = 5360
gcp_factor = 5360
gcp_factor = 5360
gcp_factor = 5360
gcp_factor = 5360
gcp_factor = 5360
gcp_factor = 5360
gcp_factor = 5360
gcp_factor = 5360
gcp_factor = 5360
gcp_factor = 5360
gcp_factor = 5360
avoidable miss
gcp_factor = 5440
gcp_factor = 5440
gcp_factor = 5440
gcp_factor = 5440
gcp_factor = 5440
gcp_factor = 5440
gcp_factor = 5440
gcp_factor = 5440
gcp_factor = 5440
gcp_factor = 5440
avoidable miss
gcp_factor = 5520
gcp_factor = 5520
gcp_factor = 5520
gcp_factor = 5520
gcp_factor = 5520
gcp_factor = 5520
gcp_factor = 5520
avoidable miss
gcp_factor = 5600
gcp_factor = 5600
gcp_factor = 5600
gcp_factor = 5600
avoidable miss
gcp_factor = 5680
gcp_factor = 5680
gcp_factor = 5680
gcp_factor = 5680
gcp_factor = 5680
avoidable miss
gcp_factor = 5760
gcp_factor = 5760
gcp_factor = 5760
gcp_factor = 5760
avoidable miss
gcp_factor = 5840
gcp_factor = 5840
gcp_factor = 5840
avoidable miss
gcp_factor = 5920
gcp_factor = 5920
gcp_factor = 5920
avoidable miss
gcp_factor = 6000
gcp_factor = 6000
avoidable miss
gcp_factor = 6080
gcp_factor = 6080
avoidable miss
gcp_factor = 6160
gcp_factor = 6160
avoidable miss
gcp_factor = 6240
gcp_factor = 6240
avoidable miss
gcp_factor = 6320
gcp_factor = 6320
avoidable miss
gcp_factor = 6400
gcp_factor = 6400
gcp_factor = 6400
gcp_factor = 6400
avoidable miss
gcp_factor = 6480
gcp_factor = 6480
gcp_factor = 6480
gcp_factor = 6480
avoidable miss
gcp_factor = 6560
gcp_factor = 6560
gcp_factor = 6560
avoidable miss
gcp_factor = 6640
gcp_factor = 6640
avoidable miss
gcp_factor = 6720
gcp_factor = 6720
avoidable miss
gcp_factor = 6800
gcp_factor = 6800
avoidable miss
gcp_factor = 6880
gcp_factor = 6880
gcp_factor = 6880
avoidable miss
gcp_factor = 6960
gcp_factor = 6960
gcp_factor = 6960
avoidable miss
gcp_factor = 7040
gcp_factor = 7040
gcp_factor = 7040
gcp_factor = 7040
avoidable miss
gcp_factor = 7120
gcp_factor = 7120
avoidable miss
gcp_factor = 7200
avoidable miss
gcp_factor = 7280
avoidable miss
gcp_factor = 7360
gcp_factor = 7360
gcp_factor = 7360
avoidable miss
gcp_factor = 7440
gcp_factor = 7440
gcp_factor = 7440
avoidable miss
gcp_factor = 7520
gcp_factor = 7520
avoidable miss
gcp_factor = 7600
gcp_factor = 7600
avoidable miss
gcp_factor = 7680
avoidable miss
gcp_factor = 7760
gcp_factor = 7760
gcp_factor = 7760
avoidable miss
gcp_factor = 7840
gcp_factor = 7840
avoidable miss
gcp_factor = 7920
gcp_factor = 7920
gcp_factor = 7920
avoidable miss
gcp_factor = 8000
gcp_factor = 8000
gcp_factor = 8000
gcp_factor = 8000
gcp_factor = 8000
gcp_factor = 8000
gcp_factor = 8000
gcp_factor = 8000
gcp_factor = 8000
gcp_factor = 8000
gcp_factor = 8000
gcp_factor = 8000
gcp_factor = 8000
avoidable miss
gcp_factor = 8080
gcp_factor = 8080
avoidable miss
gcp_factor = 8160
gcp_factor = 8160
avoidable miss
gcp_factor = 8240
avoidable miss
gcp_factor = 8320
gcp_factor = 8320
avoidable miss
gcp_factor = 8400
gcp_factor = 8400
gcp_factor = 8400
avoidable miss
gcp_factor = 8480
gcp_factor = 8480
gcp_factor = 8480
gcp_factor = 8480
avoidable miss
gcp_factor = 8560
gcp_factor = 8560
avoidable miss
gcp_factor = 8640
gcp_factor = 8640
avoidable miss
gcp_factor = 8720
avoidable miss
gcp_factor = 8800
gcp_factor = 8800
gcp_factor = 8800
avoidable miss
gcp_factor = 8880
gcp_factor = 8880
gcp_factor = 8880
gcp_factor = 8880
gcp_factor = 8880
avoidable miss
gcp_factor = 8960
gcp_factor = 8960
gcp_factor = 8960
gcp_factor = 8960
gcp_factor = 8960
gcp_factor = 8960
avoidable miss
gcp_factor = 9040
gcp_factor = 9040
gcp_factor = 9040
avoidable miss
gcp_factor = 9120
gcp_factor = 9120
gcp_factor = 9120
gcp_factor = 9120
avoidable miss
gcp_factor = 9200
avoidable miss
gcp_factor = 9280
gcp_factor = 9280
avoidable miss
gcp_factor = 9360
avoidable miss
gcp_factor = 9440
gcp_factor = 9440
gcp_factor = 9440
avoidable miss
gcp_factor = 9520
gcp_factor = 9520
avoidable miss
gcp_factor = 9600
gcp_factor = 9600
avoidable miss
gcp_factor = 9680
gcp_factor = 9680
avoidable miss
gcp_factor = 9760
gcp_factor = 9760
avoidable miss
gcp_factor = 9840
gcp_factor = 9840
gcp_factor = 9840
avoidable miss
gcp_factor = 9920
gcp_factor = 9920
avoidable miss
gcp_factor = 10000
gcp_factor = 10000
avoidable miss
gcp_factor = 10080
avoidable miss
gcp_factor = 10160
avoidable miss
gcp_factor = 10240
gcp_factor = 10240
avoidable miss
gcp_factor = 10320
gcp_factor = 10320
gcp_factor = 10320
gcp_factor = 10320
gcp_factor = 10320
gcp_factor = 10320
avoidable miss
gcp_factor = 10400
gcp_factor = 10400
avoidable miss
gcp_factor = 10480
gcp_factor = 10480
gcp_factor = 10480
avoidable miss
gcp_factor = 10560
gcp_factor = 10560
gcp_factor = 10560
gcp_factor = 10560
avoidable miss
gcp_factor = 10640
avoidable miss
gcp_factor = 10720
avoidable miss
gcp_factor = 10800
gcp_factor = 10800
avoidable miss
gcp_factor = 10880
gcp_factor = 10880
gcp_factor = 10880
gcp_factor = 10880
avoidable miss
gcp_factor = 10960
gcp_factor = 10960
gcp_factor = 10960
gcp_factor = 10960
avoidable miss
gcp_factor = 11040
gcp_factor = 11040
gcp_factor = 11040
gcp_factor = 11040
gcp_factor = 11040
gcp_factor = 11040
gcp_factor = 11040
avoidable miss
gcp_factor = 11120
gcp_factor = 11120
avoidable miss
gcp_factor = 11200
gcp_factor = 11200
gcp_factor = 11200
gcp_factor = 11200
gcp_factor = 11200
avoidable miss
gcp_factor = 11280
gcp_factor = 11280
gcp_factor = 11280
gcp_factor = 11280
avoidable miss
gcp_factor = 11360
gcp_factor = 11360
avoidable miss
gcp_factor = 11440
gcp_factor = 11440
gcp_factor = 11440
gcp_factor = 11440
avoidable miss
gcp_factor = 11520
gcp_factor = 11520
avoidable miss
gcp_factor = 11600
gcp_factor = 11600
gcp_factor = 11600
avoidable miss
gcp_factor = 11680
gcp_factor = 11680
gcp_factor = 11680
gcp_factor = 11680
avoidable miss
gcp_factor = 11760
gcp_factor = 11760
gcp_factor = 11760
gcp_factor = 11760
gcp_factor = 11760
gcp_factor = 11760
gcp_factor = 11760
avoidable miss
gcp_factor = 11840
gcp_factor = 11840
gcp_factor = 11840
gcp_factor = 11840
gcp_factor = 11840
avoidable miss
gcp_factor = 11920
gcp_factor = 11920
gcp_factor = 11920
gcp_factor = 11920
gcp_factor = 11920
avoidable miss
gcp_factor = 12000
gcp_factor = 12000
gcp_factor = 12000
gcp_factor = 12000
gcp_factor = 12000
avoidable miss
gcp_factor = 12080
gcp_factor = 12080
gcp_factor = 12080
avoidable miss
gcp_factor = 12160
gcp_factor = 12160
gcp_factor = 12160
avoidable miss
gcp_factor = 12240
gcp_factor = 12240
gcp_factor = 12240
avoidable miss
gcp_factor = 12320
gcp_factor = 12320
gcp_factor = 12320
gcp_factor = 12320
avoidable miss
gcp_factor = 12400
gcp_factor = 12400
gcp_factor = 12400
avoidable miss
gcp_factor = 12480
gcp_factor = 12480
avoidable miss
gcp_factor = 12560
gcp_factor = 12560
gcp_factor = 12560
gcp_factor = 12560
gcp_factor = 12560
avoidable miss
gcp_factor = 12640
avoidable miss
gcp_factor = 12720
gcp_factor = 12720
gcp_factor = 12720
gcp_factor = 12720
gcp_factor = 12720
avoidable miss
gcp_factor = 12800
gcp_factor = 12800
gcp_factor = 12800
avoidable miss
gcp_factor = 12880
gcp_factor = 12880
gcp_factor = 12880
avoidable miss
gcp_factor = 12960
gcp_factor = 12960
avoidable miss
gcp_factor = 13040
avoidable miss
gcp_factor = 13120
gcp_factor = 13120
gcp_factor = 13120
gcp_factor = 13120
gcp_factor = 13120
gcp_factor = 13120
gcp_factor = 13120
avoidable miss
gcp_factor = 13200
gcp_factor = 13200
gcp_factor = 13200
avoidable miss
gcp_factor = 13280
gcp_factor = 13280
avoidable miss
gcp_factor = 13360
gcp_factor = 13360
avoidable miss
gcp_factor = 13440
avoidable miss
gcp_factor = 13520
gcp_factor = 13520
avoidable miss
gcp_factor = 13600
gcp_factor = 13600
avoidable miss
gcp_factor = 13680
gcp_factor = 13680
gcp_factor = 13680
avoidable miss
gcp_factor = 13760
gcp_factor = 13760
avoidable miss
gcp_factor = 13840
gcp_factor = 13840
avoidable miss
gcp_factor = 13920
gcp_factor = 13920
gcp_factor = 13920
gcp_factor = 13920
gcp_factor = 13920
gcp_factor = 13920
gcp_factor = 13920
gcp_factor = 13920
gcp_factor = 13920
avoidable miss
gcp_factor = 14000
gcp_factor = 14000
avoidable miss
gcp_factor = 14080
gcp_factor = 14080
gcp_factor = 14080
avoidable miss
gcp_factor = 14160
gcp_factor = 14160
avoidable miss
gcp_factor = 14240
gcp_factor = 14240
gcp_factor = 14240
gcp_factor = 14240
gcp_factor = 14240
gcp_factor = 14240
gcp_factor = 14240
avoidable miss
gcp_factor = 14320
gcp_factor = 14320
gcp_factor = 14320
avoidable miss
gcp_factor = 14400
gcp_factor = 14400
gcp_factor = 14400
gcp_factor = 14400
avoidable miss
gcp_factor = 14480
gcp_factor = 14480
avoidable miss
gcp_factor = 14560
avoidable miss
gcp_factor = 14640
gcp_factor = 14640
avoidable miss
gcp_factor = 14720
gcp_factor = 14720
gcp_factor = 14720
avoidable miss
gcp_factor = 14800
gcp_factor = 14800
avoidable miss
gcp_factor = 14880
gcp_factor = 14880
gcp_factor = 14880
gcp_factor = 14880
avoidable miss
gcp_factor = 14960
avoidable miss
gcp_factor = 15040
gcp_factor = 15040
gcp_factor = 15040
avoidable miss
gcp_factor = 15120
gcp_factor = 15120
avoidable miss
gcp_factor = 15200
gcp_factor = 15200
gcp_factor = 15200
avoidable miss
gcp_factor = 15280
gcp_factor = 15280
gcp_factor = 15280
avoidable miss
gcp_factor = 15360
gcp_factor = 15360
avoidable miss
gcp_factor = 15440
gcp_factor = 15440
avoidable miss
gcp_factor = 15520
gcp_factor = 15520
gcp_factor = 15520
gcp_factor = 15520
gcp_factor = 15520
avoidable miss
gcp_factor = 15600
gcp_factor = 15600
gcp_factor = 15600
gcp_factor = 15600
avoidable miss
gcp_factor = 15680
avoidable miss
gcp_factor = 15760
gcp_factor = 15760
gcp_factor = 15760
gcp_factor = 15760
gcp_factor = 15760
avoidable miss
gcp_factor = 15840
gcp_factor = 15840
gcp_factor = 15840
gcp_factor = 15840
avoidable miss
gcp_factor = 15920
gcp_factor = 15920
gcp_factor = 15920
gcp_factor = 15920
gcp_factor = 15920
gcp_factor = 15920
avoidable miss
gcp_factor = 16000
gcp_factor = 16000
gcp_factor = 16000
gcp_factor = 16000
gcp_factor = 16000
gcp_factor = 16000
avoidable miss
gcp_factor = 16080
gcp_factor = 16080
gcp_factor = 16080
gcp_factor = 16080
gcp_factor = 16080
avoidable miss
gcp_factor = 16160
avoidable miss
gcp_factor = 16240
gcp_factor = 16240
gcp_factor = 16240
gcp_factor = 16240
gcp_factor = 16240
gcp_factor = 16240
gcp_factor = 16240
gcp_factor = 16240
gcp_factor = 16240
gcp_factor = 16240
avoidable miss
gcp_factor = 16320
gcp_factor = 16320
gcp_factor = 16320
gcp_factor = 16320
avoidable miss
gcp_factor = 16400
gcp_factor = 16400
gcp_factor = 16400
gcp_factor = 16400
avoidable miss
gcp_factor = 16480
gcp_factor = 16480
avoidable miss
gcp_factor = 16560
gcp_factor = 16560
gcp_factor = 16560
gcp_factor = 16560
gcp_factor = 16560
avoidable miss
gcp_factor = 16640
avoidable miss
gcp_factor = 16720
gcp_factor = 16720
gcp_factor = 16720
gcp_factor = 16720
avoidable miss
gcp_factor = 16800
gcp_factor = 16800
avoidable miss
gcp_factor = 16880
gcp_factor = 16880
gcp_factor = 16880
gcp_factor = 16880
avoidable miss
gcp_factor = 16960
gcp_factor = 16960
avoidable miss
gcp_factor = 17040
gcp_factor = 17040
gcp_factor = 17040
gcp_factor = 17040
avoidable miss
gcp_factor = 17120
gcp_factor = 17120
gcp_factor = 17120
avoidable miss
gcp_factor = 17200
gcp_factor = 17200
gcp_factor = 17200
gcp_factor = 17200
gcp_factor = 17200
gcp_factor = 17200
gcp_factor = 17200
gcp_factor = 17200
gcp_factor = 17200
gcp_factor = 17200
gcp_factor = 17200
avoidable miss
gcp_factor = 17280
gcp_factor = 17280
avoidable miss
gcp_factor = 17360
gcp_factor = 17360
gcp_factor = 17360
gcp_factor = 17360
gcp_factor = 17360
gcp_factor = 17360
avoidable miss
gcp_factor = 17440
gcp_factor = 17440
avoidable miss
gcp_factor = 17520
gcp_factor = 17520
avoidable miss
gcp_factor = 17600
avoidable miss
gcp_factor = 17680
gcp_factor = 17680
avoidable miss
gcp_factor = 17760
gcp_factor = 17760
gcp_factor = 17760
gcp_factor = 17760
gcp_factor = 17760
gcp_factor = 17760
avoidable miss
gcp_factor = 17840
gcp_factor = 17840
avoidable miss
gcp_factor = 17920
gcp_factor = 17920
gcp_factor = 17920
avoidable miss
gcp_factor = 18000
gcp_factor = 18000
gcp_factor = 18000
avoidable miss
gcp_factor = 18080
gcp_factor = 18080
gcp_factor = 18080
gcp_factor = 18080
gcp_factor = 18080
gcp_factor = 18080
avoidable miss
gcp_factor = 18160
avoidable miss
gcp_factor = 18240
avoidable miss
gcp_factor = 18320
gcp_factor = 18320
avoidable miss
gcp_factor = 18400
gcp_factor = 18400
gcp_factor = 18400
gcp_factor = 18400
avoidable miss
gcp_factor = 18480
gcp_factor = 18480
avoidable miss
gcp_factor = 18560
gcp_factor = 18560
gcp_factor = 18560
gcp_factor = 18560
gcp_factor = 18560
avoidable miss
gcp_factor = 18640
gcp_factor = 18640
avoidable miss
gcp_factor = 18720
gcp_factor = 18720
gcp_factor = 18720
avoidable miss
gcp_factor = 18800
gcp_factor = 18800
avoidable miss
gcp_factor = 18880
gcp_factor = 18880
gcp_factor = 18880
gcp_factor = 18880
avoidable miss
gcp_factor = 18960
gcp_factor = 18960
avoidable miss
gcp_factor = 19040
avoidable miss
gcp_factor = 19120
gcp_factor = 19120
avoidable miss
gcp_factor = 19200
avoidable miss
gcp_factor = 19280
gcp_factor = 19280
avoidable miss
gcp_factor = 19360
avoidable miss
gcp_factor = 19440
gcp_factor = 19440
avoidable miss
gcp_factor = 19520
gcp_factor = 19520
gcp_factor = 19520
gcp_factor = 19520
gcp_factor = 19520
gcp_factor = 19520
gcp_factor = 19520
gcp_factor = 19520
avoidable miss
gcp_factor = 19600
gcp_factor = 19600
gcp_factor = 19600
avoidable miss
gcp_factor = 19680
gcp_factor = 19680
gcp_factor = 19680
gcp_factor = 19680
gcp_factor = 19680
gcp_factor = 19680
gcp_factor = 19680
avoidable miss
gcp_factor = 19760
gcp_factor = 19760
gcp_factor = 19760
gcp_factor = 19760
gcp_factor = 19760
gcp_factor = 19760
gcp_factor = 19760
gcp_factor = 19760
avoidable miss
gcp_factor = 19840
gcp_factor = 19840
gcp_factor = 19840
gcp_factor = 19840
avoidable miss
gcp_factor = 19920
gcp_factor = 19920
gcp_factor = 19920
gcp_factor = 19920
gcp_factor = 19920
gcp_factor = 19920
avoidable miss
gcp_factor = 20000
gcp_factor = 20000
avoidable miss
gcp_factor = 20080
avoidable miss
gcp_factor = 20160
gcp_factor = 20160
avoidable miss
gcp_factor = 20240
gcp_factor = 20240
avoidable miss
gcp_factor = 20320
gcp_factor = 20320
gcp_factor = 20320
gcp_factor = 20320
avoidable miss
gcp_factor = 20400
gcp_factor = 20400
gcp_factor = 20400
avoidable miss
gcp_factor = 20480
gcp_factor = 20480
gcp_factor = 20480
gcp_factor = 20480
gcp_factor = 20480
gcp_factor = 20480
avoidable miss
gcp_factor = 20560
gcp_factor = 20560
gcp_factor = 20560
avoidable miss
gcp_factor = 20640
gcp_factor = 20640
avoidable miss
gcp_factor = 20720
avoidable miss
gcp_factor = 20800
gcp_factor = 20800
gcp_factor = 20800
gcp_factor = 20800
gcp_factor = 20800
gcp_factor = 20800
avoidable miss
gcp_factor = 20880
gcp_factor = 20880
gcp_factor = 20880
gcp_factor = 20880
gcp_factor = 20880
gcp_factor = 20880
gcp_factor = 20880
avoidable miss
gcp_factor = 20960
gcp_factor = 20960
gcp_factor = 20960
avoidable miss
gcp_factor = 21040
avoidable miss
gcp_factor = 21120
gcp_factor = 21120
avoidable miss
gcp_factor = 21200
gcp_factor = 21200
avoidable miss
gcp_factor = 21280
gcp_factor = 21280
gcp_factor = 21280
gcp_factor = 21280
avoidable miss
gcp_factor = 21360
avoidable miss
gcp_factor = 21440
gcp_factor = 21440
gcp_factor = 21440
avoidable miss
gcp_factor = 21520
gcp_factor = 21520
avoidable miss
gcp_factor = 21600
gcp_factor = 21600
avoidable miss
gcp_factor = 21680
avoidable miss
gcp_factor = 21760
gcp_factor = 21760
gcp_factor = 21760
gcp_factor = 21760
gcp_factor = 21760
gcp_factor = 21760
avoidable miss
gcp_factor = 21840
gcp_factor = 21840
gcp_factor = 21840
gcp_factor = 21840
avoidable miss
gcp_factor = 21920
gcp_factor = 21920
gcp_factor = 21920
gcp_factor = 21920
avoidable miss
gcp_factor = 22000
gcp_factor = 22000
avoidable miss
gcp_factor = 22080
gcp_factor = 22080
gcp_factor = 22080
avoidable miss
gcp_factor = 22160
gcp_factor = 22160
avoidable miss
gcp_factor = 22240
gcp_factor = 22240
avoidable miss
gcp_factor = 22320
gcp_factor = 22320
gcp_factor = 22320
gcp_factor = 22320
avoidable miss
gcp_factor = 22400
gcp_factor = 22400
avoidable miss
gcp_factor = 22480
gcp_factor = 22480
gcp_factor = 22480
avoidable miss
gcp_factor = 22560
avoidable miss
gcp_factor = 22640
gcp_factor = 22640
avoidable miss
gcp_factor = 22720
gcp_factor = 22720
avoidable miss
gcp_factor = 22800
gcp_factor = 22800
avoidable miss
gcp_factor = 22880
gcp_factor = 22880
avoidable miss
gcp_factor = 22960
gcp_factor = 22960
avoidable miss
gcp_factor = 23040
gcp_factor = 23040
avoidable miss
gcp_factor = 23120
gcp_factor = 23120
avoidable miss
gcp_factor = 23200
gcp_factor = 23200
gcp_factor = 23200
gcp_factor = 23200
avoidable miss
gcp_factor = 23280
gcp_factor = 23280
gcp_factor = 23280
gcp_factor = 23280
gcp_factor = 23280
gcp_factor = 23280
gcp_factor = 23280
avoidable miss
gcp_factor = 23360
gcp_factor = 23360
gcp_factor = 23360
avoidable miss
gcp_factor = 23440
gcp_factor = 23440
avoidable miss
gcp_factor = 23520
gcp_factor = 23520
avoidable miss
gcp_factor = 23600
gcp_factor = 23600
gcp_factor = 23600
gcp_factor = 23600
avoidable miss
gcp_factor = 23680
avoidable miss
gcp_factor = 23760
gcp_factor = 23760
avoidable miss
gcp_factor = 23840
gcp_factor = 23840
gcp_factor = 23840
gcp_factor = 23840
avoidable miss
gcp_factor = 23920
avoidable miss
gcp_factor = 24000
gcp_factor = 24000
gcp_factor = 24000
avoidable miss
gcp_factor = 24080
gcp_factor = 24080
avoidable miss
gcp_factor = 24160
gcp_factor = 24160
avoidable miss
gcp_factor = 24240
gcp_factor = 24240
avoidable miss
gcp_factor = 24320
gcp_factor = 24320
avoidable miss
gcp_factor = 24400
gcp_factor = 24400
gcp_factor = 24400
gcp_factor = 24400
avoidable miss
gcp_factor = 24480
avoidable miss
gcp_factor = 24560
avoidable miss
gcp_factor = 24640
gcp_factor = 24640
avoidable miss
gcp_factor = 24720
gcp_factor = 24720
gcp_factor = 24720
gcp_factor = 24720
gcp_factor = 24720
avoidable miss
gcp_factor = 24800
gcp_factor = 24800
gcp_factor = 24800
gcp_factor = 24800
avoidable miss
gcp_factor = 24880
gcp_factor = 24880
gcp_factor = 24880
gcp_factor = 24880
avoidable miss
gcp_factor = 24960
gcp_factor = 24960
gcp_factor = 24960
avoidable miss
gcp_factor = 25040
gcp_factor = 25040
gcp_factor = 25040
gcp_factor = 25040
gcp_factor = 25040
gcp_factor = 25040
avoidable miss
gcp_factor = 25120
avoidable miss
gcp_factor = 25200
gcp_factor = 25200
gcp_factor = 25200
avoidable miss
gcp_factor = 25280
gcp_factor = 25280
avoidable miss
gcp_factor = 25360
gcp_factor = 25360
avoidable miss
gcp_factor = 25440
gcp_factor = 25440
gcp_factor = 25440
gcp_factor = 25440
avoidable miss
gcp_factor = 25520
gcp_factor = 25520
avoidable miss
gcp_factor = 25600
gcp_factor = 25600
gcp_factor = 25600
gcp_factor = 25600
gcp_factor = 25600
gcp_factor = 25600
avoidable miss
gcp_factor = 25680
gcp_factor = 25680
gcp_factor = 25680
gcp_factor = 25680
avoidable miss
gcp_factor = 25760
gcp_factor = 25760
gcp_factor = 25760
avoidable miss
gcp_factor = 25840
gcp_factor = 25840
gcp_factor = 25840
gcp_factor = 25840
avoidable miss
gcp_factor = 25920
gcp_factor = 25920
gcp_factor = 25920
avoidable miss
gcp_factor = 26000
gcp_factor = 26000
avoidable miss
gcp_factor = 26080
gcp_factor = 26080
gcp_factor = 26080
avoidable miss
gcp_factor = 26160
gcp_factor = 26160
gcp_factor = 26160
gcp_factor = 26160
avoidable miss
gcp_factor = 26240
gcp_factor = 26240
avoidable miss
gcp_factor = 26320
gcp_factor = 26320
avoidable miss
gcp_factor = 26400
gcp_factor = 26400
gcp_factor = 26400
gcp_factor = 26400
gcp_factor = 26400
avoidable miss
gcp_factor = 26480
gcp_factor = 26480
avoidable miss
gcp_factor = 26560
gcp_factor = 26560
gcp_factor = 26560
avoidable miss
gcp_factor = 26640
gcp_factor = 26640
gcp_factor = 26640
gcp_factor = 26640
avoidable miss
gcp_factor = 26720
gcp_factor = 26720
gcp_factor = 26720
gcp_factor = 26720
gcp_factor = 26720
gcp_factor = 26720
gcp_factor = 26720
gcp_factor = 26720
gcp_factor = 26720
gcp_factor = 26720
gcp_factor = 26720
gcp_factor = 26720
gcp_factor = 26720
gcp_factor = 26720
avoidable miss
gcp_factor = 26800
gcp_factor = 26800
gcp_factor = 26800
gcp_factor = 26800
gcp_factor = 26800
gcp_factor = 26800
gcp_factor = 26800
gcp_factor = 26800
gcp_factor = 26800
avoidable miss
gcp_factor = 26880
gcp_factor = 26880
gcp_factor = 26880
gcp_factor = 26880
avoidable miss
gcp_factor = 26960
gcp_factor = 26960
avoidable miss
gcp_factor = 27040
gcp_factor = 27040
gcp_factor = 27040
gcp_factor = 27040
avoidable miss
gcp_factor = 27120
gcp_factor = 27120
gcp_factor = 27120
gcp_factor = 27120
gcp_factor = 27120
gcp_factor = 27120
avoidable miss
gcp_factor = 27200
avoidable miss
gcp_factor = 27280
gcp_factor = 27280
gcp_factor = 27280
gcp_factor = 27280
gcp_factor = 27280
gcp_factor = 27280
avoidable miss
gcp_factor = 27360
gcp_factor = 27360
avoidable miss
gcp_factor = 27440
avoidable miss
gcp_factor = 27520
gcp_factor = 27520
avoidable miss
gcp_factor = 27600
gcp_factor = 27600
avoidable miss
gcp_factor = 27680
gcp_factor = 27680
gcp_factor = 27680
avoidable miss
gcp_factor = 27760
gcp_factor = 27760
gcp_factor = 27760
avoidable miss
gcp_factor = 27840
gcp_factor = 27840
avoidable miss
gcp_factor = 27920
gcp_factor = 27920
gcp_factor = 27920
gcp_factor = 27920
avoidable miss
gcp_factor = 28000
gcp_factor = 28000
avoidable miss
gcp_factor = 28080
gcp_factor = 28080
gcp_factor = 28080
avoidable miss
gcp_factor = 28160
gcp_factor = 28160
avoidable miss
gcp_factor = 28240
gcp_factor = 28240
avoidable miss
gcp_factor = 28320
gcp_factor = 28320
gcp_factor = 28320
avoidable miss
gcp_factor = 28400
gcp_factor = 28400
avoidable miss
gcp_factor = 28480
gcp_factor = 28480
gcp_factor = 28480
gcp_factor = 28480
avoidable miss
gcp_factor = 28560
gcp_factor = 28560
gcp_factor = 28560
gcp_factor = 28560
gcp_factor = 28560
gcp_factor = 28560
gcp_factor = 28560
gcp_factor = 28560
gcp_factor = 28560
gcp_factor = 28560
avoidable miss
gcp_factor = 28640
gcp_factor = 28640
gcp_factor = 28640
gcp_factor = 28640
gcp_factor = 28640
gcp_factor = 28640
gcp_factor = 28640
gcp_factor = 28640
gcp_factor = 28640
gcp_factor = 28640
gcp_factor = 28640
gcp_factor = 28640
gcp_factor = 28640
gcp_factor = 28640
gcp_factor = 28640
avoided miss
gcp_factor = 28720
gcp_factor = 28720
avoided miss
gcp_factor = 28800
gcp_factor = 28800
penalized hit
gcp_factor = 28799
gcp_factor = 28799
gcp_factor = 28799
gcp_factor = 28799
gcp_factor = 28799
gcp_factor = 28799
gcp_factor = 28799
gcp_factor = 28799
gcp_factor = 28799
gcp_factor = 28799
gcp_factor = 28799
gcp_factor = 28799
gcp_factor = 28799
gcp_factor = 28799
gcp_factor = 28799
gcp_factor = 28799
gcp_factor = 28799
gcp_factor = 28799
gcp_factor = 28799
gcp_factor = 28799
gcp_factor = 28799
gcp_factor = 28799
gcp_factor = 28799
penalized hit
gcp_factor = 28798
gcp_factor = 28798
avoided miss
gcp_factor = 28878
gcp_factor = 28878
avoided miss
gcp_factor = 28958
gcp_factor = 28958
gcp_factor = 28958
penalized hit
gcp_factor = 28957
gcp_factor = 28957
avoided miss
gcp_factor = 29037
gcp_factor = 29037
avoided miss
gcp_factor = 29117
gcp_factor = 29117
gcp_factor = 29117
gcp_factor = 29117
gcp_factor = 29117
penalized hit
gcp_factor = 29116
gcp_factor = 29116
gcp_factor = 29116
penalized hit
gcp_factor = 29115
gcp_factor = 29115
gcp_factor = 29115
gcp_factor = 29115
gcp_factor = 29115
gcp_factor = 29115
gcp_factor = 29115
gcp_factor = 29115
gcp_factor = 29115
gcp_factor = 29115
gcp_factor = 29115
gcp_factor = 29115
gcp_factor = 29115
gcp_factor = 29115
gcp_factor = 29115
gcp_factor = 29115
gcp_factor = 29115
gcp_factor = 29115
gcp_factor = 29115
gcp_factor = 29115
gcp_factor = 29115
gcp_factor = 29115
gcp_factor = 29115
gcp_factor = 29115
gcp_factor = 29115
gcp_factor = 29115
gcp_factor = 29115
gcp_factor = 29115
gcp_factor = 29115
gcp_factor = 29115
gcp_factor = 29115
gcp_factor = 29115
gcp_factor = 29115
gcp_factor = 29115
gcp_factor = 29115
gcp_factor = 29115
gcp_factor = 29115
gcp_factor = 29115
gcp_factor = 29115
gcp_factor = 29115
gcp_factor = 29115
gcp_factor = 29115
gcp_factor = 29115
gcp_factor = 29115
gcp_factor = 29115
gcp_factor = 29115
gcp_factor = 29115
gcp_factor = 29115
gcp_factor = 29115
gcp_factor = 29115
gcp_factor = 29115
gcp_factor = 29115
gcp_factor = 29115
gcp_factor = 29115
gcp_factor = 29115
gcp_factor = 29115
gcp_factor = 29115
gcp_factor = 29115
gcp_factor = 29115
gcp_factor = 29115
gcp_factor = 29115
gcp_factor = 29115
gcp_factor = 29115
gcp_factor = 29115
gcp_factor = 29115
gcp_factor = 29115
gcp_factor = 29115
gcp_factor = 29115
gcp_factor = 29115
gcp_factor = 29115
gcp_factor = 29115
gcp_factor = 29115
gcp_factor = 29115
gcp_factor = 29115
gcp_factor = 29115
gcp_factor = 29115
gcp_factor = 29115
gcp_factor = 29115
gcp_factor = 29115
gcp_factor = 29115
gcp_factor = 29115
gcp_factor = 29115
gcp_factor = 29115
penalized hit
gcp_factor = 29114
gcp_factor = 29114
avoided miss
gcp_factor = 29194
gcp_factor = 29194
avoided miss
gcp_factor = 29274
gcp_factor = 29274
gcp_factor = 29274
gcp_factor = 29274
gcp_factor = 29274
gcp_factor = 29274
gcp_factor = 29274
gcp_factor = 29274
gcp_factor = 29274
gcp_factor = 29274
gcp_factor = 29274
gcp_factor = 29274
gcp_factor = 29274
gcp_factor = 29274
gcp_factor = 29274
gcp_factor = 29274
gcp_factor = 29274
gcp_factor = 29274
gcp_factor = 29274
gcp_factor = 29274
gcp_factor = 29274
gcp_factor = 29274
gcp_factor = 29274
gcp_factor = 29274
gcp_factor = 29274
gcp_factor = 29274
gcp_factor = 29274
gcp_factor = 29274
gcp_factor = 29274
gcp_factor = 29274
gcp_factor = 29274
gcp_factor = 29274
gcp_factor = 29274
gcp_factor = 29274
gcp_factor = 29274
gcp_factor = 29274
gcp_factor = 29274
gcp_factor = 29274
gcp_factor = 29274
gcp_factor = 29274
gcp_factor = 29274
gcp_factor = 29274
gcp_factor = 29274
gcp_factor = 29274
gcp_factor = 29274
gcp_factor = 29274
gcp_factor = 29274
gcp_factor = 29274
gcp_factor = 29274
gcp_factor = 29274
gcp_factor = 29274
gcp_factor = 29274
gcp_factor = 29274
gcp_factor = 29274
gcp_factor = 29274
gcp_factor = 29274
gcp_factor = 29274
gcp_factor = 29274
gcp_factor = 29274
gcp_factor = 29274
gcp_factor = 29274
gcp_factor = 29274
gcp_factor = 29274
gcp_factor = 29274
avoided miss
gcp_factor = 29354
gcp_factor = 29354
gcp_factor = 29354
avoided miss
gcp_factor = 29434
gcp_factor = 29434
gcp_factor = 29434
gcp_factor = 29434
gcp_factor = 29434
gcp_factor = 29434
gcp_factor = 29434
gcp_factor = 29434
gcp_factor = 29434
gcp_factor = 29434
gcp_factor = 29434
gcp_factor = 29434
gcp_factor = 29434
gcp_factor = 29434
gcp_factor = 29434
gcp_factor = 29434
gcp_factor = 29434
gcp_factor = 29434
gcp_factor = 29434
gcp_factor = 29434
gcp_factor = 29434
gcp_factor = 29434
gcp_factor = 29434
gcp_factor = 29434
gcp_factor = 29434
gcp_factor = 29434
gcp_factor = 29434
gcp_factor = 29434
gcp_factor = 29434
gcp_factor = 29434
gcp_factor = 29434
gcp_factor = 29434
gcp_factor = 29434
gcp_factor = 29434
gcp_factor = 29434
gcp_factor = 29434
gcp_factor = 29434
gcp_factor = 29434
gcp_factor = 29434
gcp_factor = 29434
gcp_factor = 29434
gcp_factor = 29434
gcp_factor = 29434
gcp_factor = 29434
gcp_factor = 29434
gcp_factor = 29434
gcp_factor = 29434
gcp_factor = 29434
gcp_factor = 29434
gcp_factor = 29434
gcp_factor = 29434
gcp_factor = 29434
gcp_factor = 29434
gcp_factor = 29434
gcp_factor = 29434
gcp_factor = 29434
gcp_factor = 29434
avoided miss
gcp_factor = 29514
gcp_factor = 29514
gcp_factor = 29514
gcp_factor = 29514
gcp_factor = 29514
gcp_factor = 29514
gcp_factor = 29514
gcp_factor = 29514
gcp_factor = 29514
gcp_factor = 29514
gcp_factor = 29514
gcp_factor = 29514
gcp_factor = 29514
gcp_factor = 29514
gcp_factor = 29514
gcp_factor = 29514
gcp_factor = 29514
gcp_factor = 29514
gcp_factor = 29514
gcp_factor = 29514
gcp_factor = 29514
gcp_factor = 29514
gcp_factor = 29514
gcp_factor = 29514
gcp_factor = 29514
gcp_factor = 29514
gcp_factor = 29514
gcp_factor = 29514
gcp_factor = 29514
gcp_factor = 29514
gcp_factor = 29514
gcp_factor = 29514
gcp_factor = 29514
gcp_factor = 29514
gcp_factor = 29514
gcp_factor = 29514
gcp_factor = 29514
gcp_factor = 29514
gcp_factor = 29514
gcp_factor = 29514
gcp_factor = 29514
gcp_factor = 29514
gcp_factor = 29514
gcp_factor = 29514
gcp_factor = 29514
gcp_factor = 29514
gcp_factor = 29514
gcp_factor = 29514
gcp_factor = 29514
gcp_factor = 29514
gcp_factor = 29514
gcp_factor = 29514
gcp_factor = 29514
gcp_factor = 29514
gcp_factor = 29514
gcp_factor = 29514
gcp_factor = 29514
gcp_factor = 29514
gcp_factor = 29514
gcp_factor = 29514
gcp_factor = 29514
gcp_factor = 29514
gcp_factor = 29514
gcp_factor = 29514
gcp_factor = 29514
gcp_factor = 29514
gcp_factor = 29514
gcp_factor = 29514
gcp_factor = 29514
gcp_factor = 29514
gcp_factor = 29514
gcp_factor = 29514
gcp_factor = 29514
gcp_factor = 29514
gcp_factor = 29514
gcp_factor = 29514
gcp_factor = 29514
gcp_factor = 29514
gcp_factor = 29514
gcp_factor = 29514
gcp_factor = 29514
gcp_factor = 29514
gcp_factor = 29514
gcp_factor = 29514
gcp_factor = 29514
gcp_factor = 29514
gcp_factor = 29514
gcp_factor = 29514
gcp_factor = 29514
gcp_factor = 29514
gcp_factor = 29514
gcp_factor = 29514
gcp_factor = 29514
gcp_factor = 29514
gcp_factor = 29514
gcp_factor = 29514
gcp_factor = 29514
gcp_factor = 29514
gcp_factor = 29514
gcp_factor = 29514
gcp_factor = 29514
gcp_factor = 29514
gcp_factor = 29514
gcp_factor = 29514
gcp_factor = 29514
gcp_factor = 29514
gcp_factor = 29514
gcp_factor = 29514
gcp_factor = 29514
gcp_factor = 29514
gcp_factor = 29514
gcp_factor = 29514
gcp_factor = 29514
gcp_factor = 29514
gcp_factor = 29514
gcp_factor = 29514
gcp_factor = 29514
gcp_factor = 29514
gcp_factor = 29514
gcp_factor = 29514
gcp_factor = 29514
gcp_factor = 29514
gcp_factor = 29514
gcp_factor = 29514
gcp_factor = 29514
gcp_factor = 29514
gcp_factor = 29514
gcp_factor = 29514
gcp_factor = 29514
gcp_factor = 29514
gcp_factor = 29514
gcp_factor = 29514
gcp_factor = 29514
gcp_factor = 29514
gcp_factor = 29514
gcp_factor = 29514
penalized hit
gcp_factor = 29513
gcp_factor = 29513
gcp_factor = 29513
gcp_factor = 29513
gcp_factor = 29513
gcp_factor = 29513
gcp_factor = 29513
gcp_factor = 29513
gcp_factor = 29513
gcp_factor = 29513
gcp_factor = 29513
gcp_factor = 29513
gcp_factor = 29513
gcp_factor = 29513
gcp_factor = 29513
gcp_factor = 29513
gcp_factor = 29513
gcp_factor = 29513
gcp_factor = 29513
gcp_factor = 29513
gcp_factor = 29513
gcp_factor = 29513
gcp_factor = 29513
gcp_factor = 29513
gcp_factor = 29513
gcp_factor = 29513
gcp_factor = 29513
gcp_factor = 29513
gcp_factor = 29513
gcp_factor = 29513
gcp_factor = 29513
gcp_factor = 29513
gcp_factor = 29513
gcp_factor = 29513
gcp_factor = 29513
gcp_factor = 29513
gcp_factor = 29513
gcp_factor = 29513
gcp_factor = 29513
gcp_factor = 29513
gcp_factor = 29513
gcp_factor = 29513
gcp_factor = 29513
gcp_factor = 29513
gcp_factor = 29513
gcp_factor = 29513
gcp_factor = 29513
gcp_factor = 29513
gcp_factor = 29513
gcp_factor = 29513
gcp_factor = 29513
gcp_factor = 29513
gcp_factor = 29513
gcp_factor = 29513
gcp_factor = 29513
gcp_factor = 29513
gcp_factor = 29513
gcp_factor = 29513
gcp_factor = 29513
gcp_factor = 29513
gcp_factor = 29513
gcp_factor = 29513
gcp_factor = 29513
gcp_factor = 29513
gcp_factor = 29513
avoided miss
gcp_factor = 29593
gcp_factor = 29593
gcp_factor = 29593
penalized hit
gcp_factor = 29592
gcp_factor = 29592
gcp_factor = 29592
avoided miss
gcp_factor = 29672
avoided miss
gcp_factor = 29752
gcp_factor = 29752
gcp_factor = 29752
avoided miss
gcp_factor = 29832
avoided miss
gcp_factor = 29912
gcp_factor = 29912
gcp_factor = 29912
avoided miss
gcp_factor = 29992
avoided miss
gcp_factor = 30072
gcp_factor = 30072
gcp_factor = 30072
avoided miss
gcp_factor = 30152
avoided miss
gcp_factor = 30232
gcp_factor = 30232
gcp_factor = 30232
avoided miss
gcp_factor = 30312
gcp_factor = 30312
gcp_factor = 30312
gcp_factor = 30312
gcp_factor = 30312
avoided miss
gcp_factor = 30392
gcp_factor = 30392
gcp_factor = 30392
penalized hit
gcp_factor = 30391
penalized hit
gcp_factor = 30390
gcp_factor = 30390
gcp_factor = 30390
gcp_factor = 30390
gcp_factor = 30390
penalized hit
gcp_factor = 30389
gcp_factor = 30389
gcp_factor = 30389
penalized hit
gcp_factor = 30388
gcp_factor = 30388
gcp_factor = 30388
gcp_factor = 30388
gcp_factor = 30388
gcp_factor = 30388
gcp_factor = 30388
gcp_factor = 30388
gcp_factor = 30388
gcp_factor = 30388
avoided miss
gcp_factor = 30468
gcp_factor = 30468
gcp_factor = 30468
avoided miss
gcp_factor = 30548
gcp_factor = 30548
gcp_factor = 30548
avoided miss
gcp_factor = 30628
penalized hit
gcp_factor = 30627
gcp_factor = 30627
gcp_factor = 30627
avoided miss
gcp_factor = 30707
avoided miss
gcp_factor = 30787
gcp_factor = 30787
gcp_factor = 30787
avoided miss
gcp_factor = 30867
penalized hit
gcp_factor = 30866
gcp_factor = 30866
gcp_factor = 30866
avoided miss
gcp_factor = 30946
avoided miss
gcp_factor = 31026
gcp_factor = 31026
gcp_factor = 31026
avoided miss
gcp_factor = 31106
penalized hit
gcp_factor = 31105
gcp_factor = 31105
gcp_factor = 31105
penalized hit
gcp_factor = 31104
avoided miss
gcp_factor = 31184
gcp_factor = 31184
gcp_factor = 31184
avoided miss
gcp_factor = 31264
gcp_factor = 31264
gcp_factor = 31264
penalized hit
gcp_factor = 31263
gcp_factor = 31263
gcp_factor = 31263
avoided miss
gcp_factor = 31343
avoided miss
gcp_factor = 31423
avoided miss
gcp_factor = 31503
gcp_factor = 31503
gcp_factor = 31503
avoided miss
gcp_factor = 31583
gcp_factor = 31583
gcp_factor = 31583
penalized hit
gcp_factor = 31582
gcp_factor = 31582
gcp_factor = 31582
avoided miss
gcp_factor = 31662
gcp_factor = 31662
gcp_factor = 31662
avoided miss
gcp_factor = 31742
gcp_factor = 31742
gcp_factor = 31742
gcp_factor = 31742
penalized hit
gcp_factor = 31741
gcp_factor = 31741
gcp_factor = 31741
gcp_factor = 31741
gcp_factor = 31741
gcp_factor = 31741
penalized hit
gcp_factor = 31740
penalized hit
gcp_factor = 31739
gcp_factor = 31739
gcp_factor = 31739
gcp_factor = 31739
gcp_factor = 31739
gcp_factor = 31739
gcp_factor = 31739
gcp_factor = 31739
gcp_factor = 31739
gcp_factor = 31739
gcp_factor = 31739
gcp_factor = 31739
avoided miss
gcp_factor = 31819
gcp_factor = 31819
gcp_factor = 31819
penalized hit
gcp_factor = 31818
gcp_factor = 31818
gcp_factor = 31818
avoided miss
gcp_factor = 31898
avoided miss
gcp_factor = 31978
gcp_factor = 31978
gcp_factor = 31978
gcp_factor = 31978
gcp_factor = 31978
gcp_factor = 31978
gcp_factor = 31978
gcp_factor = 31978
gcp_factor = 31978
gcp_factor = 31978
gcp_factor = 31978
gcp_factor = 31978
gcp_factor = 31978
gcp_factor = 31978
gcp_factor = 31978
gcp_factor = 31978
gcp_factor = 31978
gcp_factor = 31978
gcp_factor = 31978
gcp_factor = 31978
gcp_factor = 31978
gcp_factor = 31978
gcp_factor = 31978
gcp_factor = 31978
gcp_factor = 31978
gcp_factor = 31978
gcp_factor = 31978
gcp_factor = 31978
gcp_factor = 31978
gcp_factor = 31978
gcp_factor = 31978
gcp_factor = 31978
gcp_factor = 31978
gcp_factor = 31978
gcp_factor = 31978
gcp_factor = 31978
gcp_factor = 31978
avoided miss
gcp_factor = 32058
gcp_factor = 32058
gcp_factor = 32058
gcp_factor = 32058
gcp_factor = 32058
gcp_factor = 32058
gcp_factor = 32058
gcp_factor = 32058
gcp_factor = 32058
gcp_factor = 32058
gcp_factor = 32058
gcp_factor = 32058
gcp_factor = 32058
gcp_factor = 32058
gcp_factor = 32058
gcp_factor = 32058
gcp_factor = 32058
gcp_factor = 32058
gcp_factor = 32058
gcp_factor = 32058
gcp_factor = 32058
gcp_factor = 32058
gcp_factor = 32058
gcp_factor = 32058
gcp_factor = 32058
penalized hit
gcp_factor = 32057
gcp_factor = 32057
gcp_factor = 32057
penalized hit
gcp_factor = 32056
gcp_factor = 32056
gcp_factor = 32056
gcp_factor = 32056
gcp_factor = 32056
penalized hit
gcp_factor = 32055
gcp_factor = 32055
gcp_factor = 32055
avoided miss
gcp_factor = 32135
avoided miss
gcp_factor = 32215
gcp_factor = 32215
gcp_factor = 32215
penalized hit
gcp_factor = 32214
gcp_factor = 32214
gcp_factor = 32214
penalized hit
gcp_factor = 32213
gcp_factor = 32213
gcp_factor = 32213
gcp_factor = 32213
gcp_factor = 32213
penalized hit
gcp_factor = 32212
gcp_factor = 32212
gcp_factor = 32212
penalized hit
gcp_factor = 32211
gcp_factor = 32211
gcp_factor = 32211
gcp_factor = 32211
gcp_factor = 32211
gcp_factor = 32211
gcp_factor = 32211
penalized hit
gcp_factor = 32210
gcp_factor = 32210
gcp_factor = 32210
gcp_factor = 32210
gcp_factor = 32210
gcp_factor = 32210
gcp_factor = 32210
gcp_factor = 32210
penalized hit
gcp_factor = 32209
gcp_factor = 32209
gcp_factor = 32209
avoided miss
gcp_factor = 32289
avoided miss
gcp_factor = 32369
gcp_factor = 32369
gcp_factor = 32369
avoided miss
gcp_factor = 32449
avoided miss
gcp_factor = 32529
gcp_factor = 32529
gcp_factor = 32529
gcp_factor = 32529
gcp_factor = 32529
avoided miss
gcp_factor = 32609
gcp_factor = 32609
gcp_factor = 32609
avoided miss
gcp_factor = 32689
gcp_factor = 32689
gcp_factor = 32689
penalized hit
gcp_factor = 32688
gcp_factor = 32688
gcp_factor = 32688
gcp_factor = 32688
gcp_factor = 32688
gcp_factor = 32688
gcp_factor = 32688
gcp_factor = 32688
gcp_factor = 32688
gcp_factor = 32688
gcp_factor = 32688
gcp_factor = 32688
gcp_factor = 32688
avoided miss
gcp_factor = 32768
gcp_factor = 32768
gcp_factor = 32768
avoided miss
gcp_factor = 32848
gcp_factor = 32848
gcp_factor = 32848
gcp_factor = 32848
gcp_factor = 32848
gcp_factor = 32848
gcp_factor = 32848
gcp_factor = 32848
penalized hit
gcp_factor = 32847
gcp_factor = 32847
gcp_factor = 32847
penalized hit
gcp_factor = 32846
gcp_factor = 32846
gcp_factor = 32846
gcp_factor = 32846
gcp_factor = 32846
gcp_factor = 32846
gcp_factor = 32846
gcp_factor = 32846
gcp_factor = 32846
gcp_factor = 32846
gcp_factor = 32846
gcp_factor = 32846
gcp_factor = 32846
gcp_factor = 32846
gcp_factor = 32846
gcp_factor = 32846
gcp_factor = 32846
gcp_factor = 32846
gcp_factor = 32846
gcp_factor = 32846
gcp_factor = 32846
gcp_factor = 32846
gcp_factor = 32846
gcp_factor = 32846
gcp_factor = 32846
gcp_factor = 32846
gcp_factor = 32846
gcp_factor = 32846
gcp_factor = 32846
gcp_factor = 32846
gcp_factor = 32846
gcp_factor = 32846
gcp_factor = 32846
gcp_factor = 32846
gcp_factor = 32846
gcp_factor = 32846
gcp_factor = 32846
gcp_factor = 32846
gcp_factor = 32846
gcp_factor = 32846
gcp_factor = 32846
gcp_factor = 32846
gcp_factor = 32846
gcp_factor = 32846
gcp_factor = 32846
gcp_factor = 32846
gcp_factor = 32846
gcp_factor = 32846
gcp_factor = 32846
gcp_factor = 32846
gcp_factor = 32846
gcp_factor = 32846
gcp_factor = 32846
gcp_factor = 32846
gcp_factor = 32846
gcp_factor = 32846
avoided miss
gcp_factor = 32926
gcp_factor = 32926
gcp_factor = 32926
avoided miss
gcp_factor = 33006
gcp_factor = 33006
gcp_factor = 33006
gcp_factor = 33006
gcp_factor = 33006
gcp_factor = 33006
gcp_factor = 33006
penalized hit
gcp_factor = 33005
gcp_factor = 33005
gcp_factor = 33005
avoided miss
gcp_factor = 33085
avoided miss
gcp_factor = 33165
gcp_factor = 33165
gcp_factor = 33165
avoided miss
gcp_factor = 33245
avoided miss
gcp_factor = 33325
gcp_factor = 33325
gcp_factor = 33325
penalized hit
gcp_factor = 33324
penalized hit
gcp_factor = 33323
gcp_factor = 33323
gcp_factor = 33323
gcp_factor = 33323
gcp_factor = 33323
gcp_factor = 33323
gcp_factor = 33323
gcp_factor = 33323
gcp_factor = 33323
gcp_factor = 33323
gcp_factor = 33323
gcp_factor = 33323
gcp_factor = 33323
gcp_factor = 33323
gcp_factor = 33323
gcp_factor = 33323
gcp_factor = 33323
gcp_factor = 33323
gcp_factor = 33323
gcp_factor = 33323
gcp_factor = 33323
gcp_factor = 33323
gcp_factor = 33323
gcp_factor = 33323
gcp_factor = 33323
gcp_factor = 33323
avoided miss
gcp_factor = 33403
gcp_factor = 33403
gcp_factor = 33403
avoided miss
gcp_factor = 33483
gcp_factor = 33483
gcp_factor = 33483
penalized hit
gcp_factor = 33482
gcp_factor = 33482
gcp_factor = 33482
gcp_factor = 33482
gcp_factor = 33482
gcp_factor = 33482
gcp_factor = 33482
gcp_factor = 33482
gcp_factor = 33482
gcp_factor = 33482
gcp_factor = 33482
gcp_factor = 33482
gcp_factor = 33482
gcp_factor = 33482
gcp_factor = 33482
gcp_factor = 33482
penalized hit
gcp_factor = 33481
gcp_factor = 33481
gcp_factor = 33481
avoided miss
gcp_factor = 33561
avoided miss
gcp_factor = 33641
avoided miss
gcp_factor = 33721
gcp_factor = 33721
gcp_factor = 33721
avoided miss
gcp_factor = 33801
gcp_factor = 33801
gcp_factor = 33801
gcp_factor = 33801
gcp_factor = 33801
penalized hit
gcp_factor = 33800
penalized hit
gcp_factor = 33799
gcp_factor = 33799
gcp_factor = 33799
gcp_factor = 33799
gcp_factor = 33799
gcp_factor = 33799
gcp_factor = 33799
avoided miss
gcp_factor = 33879
gcp_factor = 33879
gcp_factor = 33879
penalized hit
gcp_factor = 33878
gcp_factor = 33878
gcp_factor = 33878
gcp_factor = 33878
gcp_factor = 33878
gcp_factor = 33878
gcp_factor = 33878
gcp_factor = 33878
gcp_factor = 33878
gcp_factor = 33878
gcp_factor = 33878
gcp_factor = 33878
gcp_factor = 33878
gcp_factor = 33878
gcp_factor = 33878
penalized hit
gcp_factor = 33877
gcp_factor = 33877
gcp_factor = 33877
penalized hit
gcp_factor = 33876
gcp_factor = 33876
gcp_factor = 33876
avoided miss
gcp_factor = 33956
avoided miss
gcp_factor = 34036
gcp_factor = 34036
gcp_factor = 34036
avoided miss
gcp_factor = 34116
avoided miss
gcp_factor = 34196
gcp_factor = 34196
gcp_factor = 34196
penalized hit
gcp_factor = 34195
gcp_factor = 34195
gcp_factor = 34195
gcp_factor = 34195
gcp_factor = 34195
gcp_factor = 34195
gcp_factor = 34195
gcp_factor = 34195
gcp_factor = 34195
gcp_factor = 34195
gcp_factor = 34195
gcp_factor = 34195
gcp_factor = 34195
gcp_factor = 34195
gcp_factor = 34195
gcp_factor = 34195
gcp_factor = 34195
gcp_factor = 34195
gcp_factor = 34195
gcp_factor = 34195
gcp_factor = 34195
gcp_factor = 34195
gcp_factor = 34195
gcp_factor = 34195
gcp_factor = 34195
gcp_factor = 34195
gcp_factor = 34195
gcp_factor = 34195
gcp_factor = 34195
gcp_factor = 34195
gcp_factor = 34195
gcp_factor = 34195
gcp_factor = 34195
gcp_factor = 34195
gcp_factor = 34195
gcp_factor = 34195
penalized hit
gcp_factor = 34194
gcp_factor = 34194
gcp_factor = 34194
gcp_factor = 34194
gcp_factor = 34194
gcp_factor = 34194
gcp_factor = 34194
gcp_factor = 34194
gcp_factor = 34194
gcp_factor = 34194
gcp_factor = 34194
gcp_factor = 34194
gcp_factor = 34194
gcp_factor = 34194
gcp_factor = 34194
gcp_factor = 34194
gcp_factor = 34194
gcp_factor = 34194
gcp_factor = 34194
gcp_factor = 34194
gcp_factor = 34194
gcp_factor = 34194
gcp_factor = 34194
gcp_factor = 34194
gcp_factor = 34194
gcp_factor = 34194
gcp_factor = 34194
gcp_factor = 34194
gcp_factor = 34194
gcp_factor = 34194
gcp_factor = 34194
gcp_factor = 34194
gcp_factor = 34194
gcp_factor = 34194
gcp_factor = 34194
gcp_factor = 34194
gcp_factor = 34194
gcp_factor = 34194
gcp_factor = 34194
gcp_factor = 34194
gcp_factor = 34194
gcp_factor = 34194
gcp_factor = 34194
gcp_factor = 34194
gcp_factor = 34194
gcp_factor = 34194
gcp_factor = 34194
gcp_factor = 34194
gcp_factor = 34194
gcp_factor = 34194
gcp_factor = 34194
gcp_factor = 34194
gcp_factor = 34194
gcp_factor = 34194
gcp_factor = 34194
gcp_factor = 34194
gcp_factor = 34194
gcp_factor = 34194
penalized hit
gcp_factor = 34193
gcp_factor = 34193
gcp_factor = 34193
avoided miss
gcp_factor = 34273
penalized hit
gcp_factor = 34272
gcp_factor = 34272
gcp_factor = 34272
avoided miss
gcp_factor = 34352
avoided miss
gcp_factor = 34432
gcp_factor = 34432
gcp_factor = 34432
avoided miss
gcp_factor = 34512
avoided miss
gcp_factor = 34592
gcp_factor = 34592
gcp_factor = 34592
avoided miss
gcp_factor = 34672
avoided miss
gcp_factor = 34752
gcp_factor = 34752
gcp_factor = 34752
avoided miss
gcp_factor = 34832
avoided miss
gcp_factor = 34912
gcp_factor = 34912
gcp_factor = 34912
avoided miss
gcp_factor = 34992
avoided miss
gcp_factor = 35072
gcp_factor = 35072
gcp_factor = 35072
avoided miss
gcp_factor = 35152
penalized hit
gcp_factor = 35151
gcp_factor = 35151
gcp_factor = 35151
avoided miss
gcp_factor = 35231
avoided miss
gcp_factor = 35311
gcp_factor = 35311
gcp_factor = 35311
avoided miss
gcp_factor = 35391
avoided miss
gcp_factor = 35471
gcp_factor = 35471
gcp_factor = 35471
avoided miss
gcp_factor = 35551
avoided miss
gcp_factor = 35631
gcp_factor = 35631
gcp_factor = 35631
avoided miss
gcp_factor = 35711
avoided miss
gcp_factor = 35791
avoided miss
gcp_factor = 35871
gcp_factor = 35871
gcp_factor = 35871
avoided miss
gcp_factor = 35951
avoided miss
gcp_factor = 36031
gcp_factor = 36031
gcp_factor = 36031
avoided miss
gcp_factor = 36111
gcp_factor = 36111
gcp_factor = 36111
gcp_factor = 36111
gcp_factor = 36111
gcp_factor = 36111
gcp_factor = 36111
penalized hit
gcp_factor = 36110
gcp_factor = 36110
gcp_factor = 36110
gcp_factor = 36110
gcp_factor = 36110
penalized hit
gcp_factor = 36109
penalized hit
gcp_factor = 36108
gcp_factor = 36108
gcp_factor = 36108
gcp_factor = 36108
gcp_factor = 36108
gcp_factor = 36108
gcp_factor = 36108
gcp_factor = 36108
gcp_factor = 36108
gcp_factor = 36108
gcp_factor = 36108
gcp_factor = 36108
gcp_factor = 36108
gcp_factor = 36108
gcp_factor = 36108
gcp_factor = 36108
gcp_factor = 36108
penalized hit
gcp_factor = 36107
gcp_factor = 36107
gcp_factor = 36107
gcp_factor = 36107
gcp_factor = 36107
gcp_factor = 36107
gcp_factor = 36107
penalized hit
gcp_factor = 36106
gcp_factor = 36106
gcp_factor = 36106
gcp_factor = 36106
gcp_factor = 36106
avoided miss
gcp_factor = 36186
gcp_factor = 36186
gcp_factor = 36186
avoided miss
gcp_factor = 36266
gcp_factor = 36266
gcp_factor = 36266
gcp_factor = 36266
gcp_factor = 36266
gcp_factor = 36266
gcp_factor = 36266
gcp_factor = 36266
penalized hit
gcp_factor = 36265
gcp_factor = 36265
gcp_factor = 36265
gcp_factor = 36265
gcp_factor = 36265
gcp_factor = 36265
gcp_factor = 36265
gcp_factor = 36265
gcp_factor = 36265
gcp_factor = 36265
gcp_factor = 36265
gcp_factor = 36265
gcp_factor = 36265
gcp_factor = 36265
gcp_factor = 36265
gcp_factor = 36265
gcp_factor = 36265
gcp_factor = 36265
gcp_factor = 36265
gcp_factor = 36265
gcp_factor = 36265
gcp_factor = 36265
gcp_factor = 36265
gcp_factor = 36265
gcp_factor = 36265
gcp_factor = 36265
gcp_factor = 36265
gcp_factor = 36265
gcp_factor = 36265
gcp_factor = 36265
gcp_factor = 36265
avoided miss
gcp_factor = 36345
gcp_factor = 36345
gcp_factor = 36345
avoided miss
gcp_factor = 36425
gcp_factor = 36425
gcp_factor = 36425
avoided miss
gcp_factor = 36505
avoided miss
gcp_factor = 36585
gcp_factor = 36585
gcp_factor = 36585
gcp_factor = 36585
gcp_factor = 36585
gcp_factor = 36585
gcp_factor = 36585
gcp_factor = 36585
gcp_factor = 36585
gcp_factor = 36585
gcp_factor = 36585
gcp_factor = 36585
gcp_factor = 36585
gcp_factor = 36585
gcp_factor = 36585
gcp_factor = 36585
gcp_factor = 36585
gcp_factor = 36585
gcp_factor = 36585
gcp_factor = 36585
gcp_factor = 36585
gcp_factor = 36585
gcp_factor = 36585
gcp_factor = 36585
gcp_factor = 36585
gcp_factor = 36585
gcp_factor = 36585
gcp_factor = 36585
gcp_factor = 36585
gcp_factor = 36585
gcp_factor = 36585
gcp_factor = 36585
gcp_factor = 36585
gcp_factor = 36585
gcp_factor = 36585
gcp_factor = 36585
gcp_factor = 36585
gcp_factor = 36585
gcp_factor = 36585
gcp_factor = 36585
gcp_factor = 36585
gcp_factor = 36585
gcp_factor = 36585
gcp_factor = 36585
gcp_factor = 36585
gcp_factor = 36585
gcp_factor = 36585
gcp_factor = 36585
gcp_factor = 36585
gcp_factor = 36585
gcp_factor = 36585
gcp_factor = 36585
gcp_factor = 36585
gcp_factor = 36585
gcp_factor = 36585
gcp_factor = 36585
gcp_factor = 36585
gcp_factor = 36585
gcp_factor = 36585
gcp_factor = 36585
gcp_factor = 36585
gcp_factor = 36585
gcp_factor = 36585
gcp_factor = 36585
gcp_factor = 36585
gcp_factor = 36585
gcp_factor = 36585
gcp_factor = 36585
gcp_factor = 36585
gcp_factor = 36585
gcp_factor = 36585
gcp_factor = 36585
gcp_factor = 36585
gcp_factor = 36585
gcp_factor = 36585
gcp_factor = 36585
gcp_factor = 36585
gcp_factor = 36585
gcp_factor = 36585
gcp_factor = 36585
gcp_factor = 36585
gcp_factor = 36585
gcp_factor = 36585
gcp_factor = 36585
gcp_factor = 36585
gcp_factor = 36585
gcp_factor = 36585
gcp_factor = 36585
gcp_factor = 36585
gcp_factor = 36585
gcp_factor = 36585
gcp_factor = 36585
gcp_factor = 36585
gcp_factor = 36585
gcp_factor = 36585
gcp_factor = 36585
gcp_factor = 36585
gcp_factor = 36585
gcp_factor = 36585
gcp_factor = 36585
gcp_factor = 36585
gcp_factor = 36585
gcp_factor = 36585
gcp_factor = 36585
gcp_factor = 36585
gcp_factor = 36585
gcp_factor = 36585
gcp_factor = 36585
gcp_factor = 36585
gcp_factor = 36585
gcp_factor = 36585
gcp_factor = 36585
gcp_factor = 36585
gcp_factor = 36585
gcp_factor = 36585
gcp_factor = 36585
gcp_factor = 36585
gcp_factor = 36585
gcp_factor = 36585
gcp_factor = 36585
gcp_factor = 36585
gcp_factor = 36585
gcp_factor = 36585
gcp_factor = 36585
gcp_factor = 36585
gcp_factor = 36585
gcp_factor = 36585
gcp_factor = 36585
gcp_factor = 36585
gcp_factor = 36585
gcp_factor = 36585
penalized hit
gcp_factor = 36584
gcp_factor = 36584
gcp_factor = 36584
gcp_factor = 36584
gcp_factor = 36584
gcp_factor = 36584
gcp_factor = 36584
gcp_factor = 36584
gcp_factor = 36584
avoided miss
gcp_factor = 36664
gcp_factor = 36664
gcp_factor = 36664
avoided miss
gcp_factor = 36744
avoided miss
gcp_factor = 36824
gcp_factor = 36824
gcp_factor = 36824
avoided miss
gcp_factor = 36904
penalized hit
gcp_factor = 36903
gcp_factor = 36903
gcp_factor = 36903
avoided miss
gcp_factor = 36983
avoided miss
gcp_factor = 37063
gcp_factor = 37063
gcp_factor = 37063
penalized hit
gcp_factor = 37062
gcp_factor = 37062
gcp_factor = 37062
gcp_factor = 37062
gcp_factor = 37062
gcp_factor = 37062
gcp_factor = 37062
gcp_factor = 37062
gcp_factor = 37062
avoided miss
gcp_factor = 37142
gcp_factor = 37142
gcp_factor = 37142
avoided miss
gcp_factor = 37222
gcp_factor = 37222
gcp_factor = 37222
avoided miss
gcp_factor = 37302
avoided miss
gcp_factor = 37382
gcp_factor = 37382
gcp_factor = 37382
avoided miss
gcp_factor = 37462
avoided miss
gcp_factor = 37542
gcp_factor = 37542
gcp_factor = 37542
avoided miss
gcp_factor = 37622
penalized hit
gcp_factor = 37621
gcp_factor = 37621
gcp_factor = 37621
avoided miss
gcp_factor = 37701
penalized hit
gcp_factor = 37700
gcp_factor = 37700
gcp_factor = 37700
avoided miss
gcp_factor = 37780
penalized hit
gcp_factor = 37779
gcp_factor = 37779
gcp_factor = 37779
avoided miss
gcp_factor = 37859
penalized hit
gcp_factor = 37858
gcp_factor = 37858
gcp_factor = 37858
avoided miss
gcp_factor = 37938
penalized hit
gcp_factor = 37937
gcp_factor = 37937
gcp_factor = 37937
avoided miss
gcp_factor = 38017
penalized hit
gcp_factor = 38016
gcp_factor = 38016
gcp_factor = 38016
avoided miss
gcp_factor = 38096
penalized hit
gcp_factor = 38095
gcp_factor = 38095
gcp_factor = 38095
avoided miss
gcp_factor = 38175
penalized hit
gcp_factor = 38174
gcp_factor = 38174
gcp_factor = 38174
avoided miss
gcp_factor = 38254
penalized hit
gcp_factor = 38253
gcp_factor = 38253
gcp_factor = 38253
penalized hit
gcp_factor = 38252
penalized hit
gcp_factor = 38251
avoided miss
gcp_factor = 38331
gcp_factor = 38331
gcp_factor = 38331
penalized hit
gcp_factor = 38330
gcp_factor = 38330
gcp_factor = 38330
avoided miss
gcp_factor = 38410
penalized hit
gcp_factor = 38409
gcp_factor = 38409
gcp_factor = 38409
avoided miss
gcp_factor = 38489
penalized hit
gcp_factor = 38488
gcp_factor = 38488
gcp_factor = 38488
avoided miss
gcp_factor = 38568
penalized hit
gcp_factor = 38567
gcp_factor = 38567
gcp_factor = 38567
avoided miss
gcp_factor = 38647
penalized hit
gcp_factor = 38646
gcp_factor = 38646
gcp_factor = 38646
avoided miss
gcp_factor = 38726
avoided miss
gcp_factor = 38806
gcp_factor = 38806
gcp_factor = 38806
penalized hit
gcp_factor = 38805
gcp_factor = 38805
gcp_factor = 38805
gcp_factor = 38805
gcp_factor = 38805
gcp_factor = 38805
gcp_factor = 38805
gcp_factor = 38805
gcp_factor = 38805
gcp_factor = 38805
gcp_factor = 38805
gcp_factor = 38805
gcp_factor = 38805
gcp_factor = 38805
gcp_factor = 38805
gcp_factor = 38805
gcp_factor = 38805
gcp_factor = 38805
gcp_factor = 38805
gcp_factor = 38805
gcp_factor = 38805
gcp_factor = 38805
gcp_factor = 38805
gcp_factor = 38805
gcp_factor = 38805
gcp_factor = 38805
gcp_factor = 38805
gcp_factor = 38805
gcp_factor = 38805
gcp_factor = 38805
gcp_factor = 38805
gcp_factor = 38805
gcp_factor = 38805
gcp_factor = 38805
gcp_factor = 38805
gcp_factor = 38805
gcp_factor = 38805
gcp_factor = 38805
gcp_factor = 38805
gcp_factor = 38805
gcp_factor = 38805
gcp_factor = 38805
gcp_factor = 38805
gcp_factor = 38805
gcp_factor = 38805
gcp_factor = 38805
gcp_factor = 38805
gcp_factor = 38805
gcp_factor = 38805
gcp_factor = 38805
gcp_factor = 38805
gcp_factor = 38805
gcp_factor = 38805
gcp_factor = 38805
gcp_factor = 38805
gcp_factor = 38805
gcp_factor = 38805
gcp_factor = 38805
gcp_factor = 38805
gcp_factor = 38805
gcp_factor = 38805
gcp_factor = 38805
gcp_factor = 38805
gcp_factor = 38805
gcp_factor = 38805
gcp_factor = 38805
gcp_factor = 38805
gcp_factor = 38805
gcp_factor = 38805
gcp_factor = 38805
gcp_factor = 38805
gcp_factor = 38805
gcp_factor = 38805
gcp_factor = 38805
gcp_factor = 38805
gcp_factor = 38805
gcp_factor = 38805
gcp_factor = 38805
gcp_factor = 38805
gcp_factor = 38805
gcp_factor = 38805
gcp_factor = 38805
gcp_factor = 38805
gcp_factor = 38805
gcp_factor = 38805
gcp_factor = 38805
gcp_factor = 38805
gcp_factor = 38805
gcp_factor = 38805
gcp_factor = 38805
gcp_factor = 38805
gcp_factor = 38805
gcp_factor = 38805
gcp_factor = 38805
gcp_factor = 38805
gcp_factor = 38805
gcp_factor = 38805
gcp_factor = 38805
gcp_factor = 38805
gcp_factor = 38805
gcp_factor = 38805
gcp_factor = 38805
gcp_factor = 38805
gcp_factor = 38805
gcp_factor = 38805
gcp_factor = 38805
gcp_factor = 38805
gcp_factor = 38805
gcp_factor = 38805
gcp_factor = 38805
gcp_factor = 38805
gcp_factor = 38805
gcp_factor = 38805
gcp_factor = 38805
gcp_factor = 38805
gcp_factor = 38805
gcp_factor = 38805
gcp_factor = 38805
gcp_factor = 38805
gcp_factor = 38805
gcp_factor = 38805
gcp_factor = 38805
gcp_factor = 38805
gcp_factor = 38805
gcp_factor = 38805
gcp_factor = 38805
gcp_factor = 38805
gcp_factor = 38805
gcp_factor = 38805
gcp_factor = 38805
gcp_factor = 38805
gcp_factor = 38805
gcp_factor = 38805
gcp_factor = 38805
gcp_factor = 38805
gcp_factor = 38805
gcp_factor = 38805
gcp_factor = 38805
gcp_factor = 38805
gcp_factor = 38805
gcp_factor = 38805
gcp_factor = 38805
gcp_factor = 38805
gcp_factor = 38805
gcp_factor = 38805
gcp_factor = 38805
gcp_factor = 38805
gcp_factor = 38805
gcp_factor = 38805
gcp_factor = 38805
gcp_factor = 38805
gcp_factor = 38805
gcp_factor = 38805
gcp_factor = 38805
gcp_factor = 38805
gcp_factor = 38805
gcp_factor = 38805
gcp_factor = 38805
gcp_factor = 38805
gcp_factor = 38805
gcp_factor = 38805
gcp_factor = 38805
gcp_factor = 38805
gcp_factor = 38805
gcp_factor = 38805
gcp_factor = 38805
gcp_factor = 38805
gcp_factor = 38805
gcp_factor = 38805
gcp_factor = 38805
gcp_factor = 38805
gcp_factor = 38805
gcp_factor = 38805
gcp_factor = 38805
gcp_factor = 38805
gcp_factor = 38805
gcp_factor = 38805
gcp_factor = 38805
gcp_factor = 38805
gcp_factor = 38805
gcp_factor = 38805
gcp_factor = 38805
gcp_factor = 38805
gcp_factor = 38805
gcp_factor = 38805
gcp_factor = 38805
gcp_factor = 38805
gcp_factor = 38805
gcp_factor = 38805
gcp_factor = 38805
gcp_factor = 38805
gcp_factor = 38805
gcp_factor = 38805
gcp_factor = 38805
gcp_factor = 38805
gcp_factor = 38805
gcp_factor = 38805
gcp_factor = 38805
gcp_factor = 38805
gcp_factor = 38805
gcp_factor = 38805
gcp_factor = 38805
gcp_factor = 38805
gcp_factor = 38805
gcp_factor = 38805
gcp_factor = 38805
gcp_factor = 38805
gcp_factor = 38805
gcp_factor = 38805
gcp_factor = 38805
gcp_factor = 38805
gcp_factor = 38805
gcp_factor = 38805
gcp_factor = 38805
gcp_factor = 38805
gcp_factor = 38805
gcp_factor = 38805
gcp_factor = 38805
gcp_factor = 38805
gcp_factor = 38805
gcp_factor = 38805
gcp_factor = 38805
gcp_factor = 38805
gcp_factor = 38805
gcp_factor = 38805
gcp_factor = 38805
gcp_factor = 38805
gcp_factor = 38805
gcp_factor = 38805
gcp_factor = 38805
gcp_factor = 38805
gcp_factor = 38805
gcp_factor = 38805
gcp_factor = 38805
gcp_factor = 38805
gcp_factor = 38805
gcp_factor = 38805
gcp_factor = 38805
gcp_factor = 38805
gcp_factor = 38805
gcp_factor = 38805
gcp_factor = 38805
gcp_factor = 38805
gcp_factor = 38805
gcp_factor = 38805
gcp_factor = 38805
gcp_factor = 38805
gcp_factor = 38805
gcp_factor = 38805
gcp_factor = 38805
gcp_factor = 38805
gcp_factor = 38805
gcp_factor = 38805
gcp_factor = 38805
gcp_factor = 38805
gcp_factor = 38805
gcp_factor = 38805
gcp_factor = 38805
gcp_factor = 38805
gcp_factor = 38805
gcp_factor = 38805
gcp_factor = 38805
gcp_factor = 38805
gcp_factor = 38805
gcp_factor = 38805
gcp_factor = 38805
gcp_factor = 38805
gcp_factor = 38805
gcp_factor = 38805
gcp_factor = 38805
gcp_factor = 38805
gcp_factor = 38805
gcp_factor = 38805
gcp_factor = 38805
gcp_factor = 38805
gcp_factor = 38805
gcp_factor = 38805
gcp_factor = 38805
gcp_factor = 38805
gcp_factor = 38805
gcp_factor = 38805
gcp_factor = 38805
gcp_factor = 38805
gcp_factor = 38805
gcp_factor = 38805
gcp_factor = 38805
gcp_factor = 38805
gcp_factor = 38805
gcp_factor = 38805
gcp_factor = 38805
gcp_factor = 38805
gcp_factor = 38805
gcp_factor = 38805
gcp_factor = 38805
gcp_factor = 38805
gcp_factor = 38805
gcp_factor = 38805
gcp_factor = 38805
gcp_factor = 38805
gcp_factor = 38805
gcp_factor = 38805
gcp_factor = 38805
gcp_factor = 38805
gcp_factor = 38805
gcp_factor = 38805
gcp_factor = 38805
gcp_factor = 38805
gcp_factor = 38805
gcp_factor = 38805
gcp_factor = 38805
gcp_factor = 38805
gcp_factor = 38805
gcp_factor = 38805
gcp_factor = 38805
gcp_factor = 38805
gcp_factor = 38805
gcp_factor = 38805
gcp_factor = 38805
gcp_factor = 38805
gcp_factor = 38805
gcp_factor = 38805
gcp_factor = 38805
gcp_factor = 38805
gcp_factor = 38805
gcp_factor = 38805
gcp_factor = 38805
gcp_factor = 38805
gcp_factor = 38805
gcp_factor = 38805
gcp_factor = 38805
gcp_factor = 38805
gcp_factor = 38805
gcp_factor = 38805
gcp_factor = 38805
gcp_factor = 38805
gcp_factor = 38805
gcp_factor = 38805
gcp_factor = 38805
gcp_factor = 38805
gcp_factor = 38805
gcp_factor = 38805
gcp_factor = 38805
gcp_factor = 38805
gcp_factor = 38805
gcp_factor = 38805
gcp_factor = 38805
gcp_factor = 38805
gcp_factor = 38805
gcp_factor = 38805
gcp_factor = 38805
gcp_factor = 38805
gcp_factor = 38805
gcp_factor = 38805
gcp_factor = 38805
gcp_factor = 38805
gcp_factor = 38805
gcp_factor = 38805
gcp_factor = 38805
gcp_factor = 38805
gcp_factor = 38805
gcp_factor = 38805
gcp_factor = 38805
gcp_factor = 38805
gcp_factor = 38805
gcp_factor = 38805
gcp_factor = 38805
gcp_factor = 38805
gcp_factor = 38805
gcp_factor = 38805
gcp_factor = 38805
gcp_factor = 38805
gcp_factor = 38805
gcp_factor = 38805
gcp_factor = 38805
gcp_factor = 38805
gcp_factor = 38805
gcp_factor = 38805
gcp_factor = 38805
gcp_factor = 38805
gcp_factor = 38805
gcp_factor = 38805
gcp_factor = 38805
gcp_factor = 38805
gcp_factor = 38805
gcp_factor = 38805
gcp_factor = 38805
gcp_factor = 38805
gcp_factor = 38805
gcp_factor = 38805
gcp_factor = 38805
gcp_factor = 38805
gcp_factor = 38805
gcp_factor = 38805
gcp_factor = 38805
gcp_factor = 38805
gcp_factor = 38805
gcp_factor = 38805
gcp_factor = 38805
gcp_factor = 38805
gcp_factor = 38805
gcp_factor = 38805
gcp_factor = 38805
gcp_factor = 38805
gcp_factor = 38805
gcp_factor = 38805
gcp_factor = 38805
gcp_factor = 38805
gcp_factor = 38805
gcp_factor = 38805
gcp_factor = 38805
gcp_factor = 38805
gcp_factor = 38805
gcp_factor = 38805
gcp_factor = 38805
gcp_factor = 38805
gcp_factor = 38805
gcp_factor = 38805
gcp_factor = 38805
gcp_factor = 38805
gcp_factor = 38805
gcp_factor = 38805
gcp_factor = 38805
gcp_factor = 38805
gcp_factor = 38805
gcp_factor = 38805
gcp_factor = 38805
gcp_factor = 38805
gcp_factor = 38805
gcp_factor = 38805
gcp_factor = 38805
gcp_factor = 38805
gcp_factor = 38805
gcp_factor = 38805
gcp_factor = 38805
gcp_factor = 38805
gcp_factor = 38805
gcp_factor = 38805
gcp_factor = 38805
gcp_factor = 38805
gcp_factor = 38805
gcp_factor = 38805
gcp_factor = 38805
gcp_factor = 38805
gcp_factor = 38805
gcp_factor = 38805
gcp_factor = 38805
gcp_factor = 38805
gcp_factor = 38805
gcp_factor = 38805
gcp_factor = 38805
gcp_factor = 38805
gcp_factor = 38805
gcp_factor = 38805
gcp_factor = 38805
gcp_factor = 38805
gcp_factor = 38805
gcp_factor = 38805
gcp_factor = 38805
gcp_factor = 38805
gcp_factor = 38805
gcp_factor = 38805
gcp_factor = 38805
gcp_factor = 38805
gcp_factor = 38805
gcp_factor = 38805
gcp_factor = 38805
gcp_factor = 38805
gcp_factor = 38805
gcp_factor = 38805
gcp_factor = 38805
gcp_factor = 38805
gcp_factor = 38805
gcp_factor = 38805
gcp_factor = 38805
gcp_factor = 38805
gcp_factor = 38805
gcp_factor = 38805
gcp_factor = 38805
gcp_factor = 38805
gcp_factor = 38805
gcp_factor = 38805
gcp_factor = 38805
gcp_factor = 38805
gcp_factor = 38805
gcp_factor = 38805
gcp_factor = 38805
gcp_factor = 38805
gcp_factor = 38805
gcp_factor = 38805
gcp_factor = 38805
gcp_factor = 38805
gcp_factor = 38805
gcp_factor = 38805
gcp_factor = 38805
gcp_factor = 38805
gcp_factor = 38805
gcp_factor = 38805
gcp_factor = 38805
gcp_factor = 38805
gcp_factor = 38805
gcp_factor = 38805
gcp_factor = 38805
gcp_factor = 38805
gcp_factor = 38805
gcp_factor = 38805
gcp_factor = 38805
gcp_factor = 38805
gcp_factor = 38805
gcp_factor = 38805
gcp_factor = 38805
gcp_factor = 38805
gcp_factor = 38805
gcp_factor = 38805
gcp_factor = 38805
gcp_factor = 38805
gcp_factor = 38805
gcp_factor = 38805
gcp_factor = 38805
gcp_factor = 38805
gcp_factor = 38805
gcp_factor = 38805
gcp_factor = 38805
gcp_factor = 38805
gcp_factor = 38805
gcp_factor = 38805
gcp_factor = 38805
gcp_factor = 38805
gcp_factor = 38805
gcp_factor = 38805
gcp_factor = 38805
gcp_factor = 38805
gcp_factor = 38805
gcp_factor = 38805
gcp_factor = 38805
gcp_factor = 38805
gcp_factor = 38805
gcp_factor = 38805
gcp_factor = 38805
gcp_factor = 38805
gcp_factor = 38805
gcp_factor = 38805
gcp_factor = 38805
gcp_factor = 38805
gcp_factor = 38805
gcp_factor = 38805
gcp_factor = 38805
gcp_factor = 38805
gcp_factor = 38805
gcp_factor = 38805
gcp_factor = 38805
gcp_factor = 38805
gcp_factor = 38805
gcp_factor = 38805
gcp_factor = 38805
gcp_factor = 38805
gcp_factor = 38805
gcp_factor = 38805
gcp_factor = 38805
gcp_factor = 38805
gcp_factor = 38805
gcp_factor = 38805
gcp_factor = 38805
gcp_factor = 38805
gcp_factor = 38805
gcp_factor = 38805
gcp_factor = 38805
gcp_factor = 38805
gcp_factor = 38805
gcp_factor = 38805
gcp_factor = 38805
gcp_factor = 38805
gcp_factor = 38805
gcp_factor = 38805
gcp_factor = 38805
gcp_factor = 38805
gcp_factor = 38805
gcp_factor = 38805
gcp_factor = 38805
gcp_factor = 38805
gcp_factor = 38805
gcp_factor = 38805
gcp_factor = 38805
gcp_factor = 38805
gcp_factor = 38805
gcp_factor = 38805
gcp_factor = 38805
gcp_factor = 38805
gcp_factor = 38805
gcp_factor = 38805
gcp_factor = 38805
gcp_factor = 38805
gcp_factor = 38805
gcp_factor = 38805
gcp_factor = 38805
gcp_factor = 38805
gcp_factor = 38805
gcp_factor = 38805
gcp_factor = 38805
gcp_factor = 38805
gcp_factor = 38805
gcp_factor = 38805
gcp_factor = 38805
gcp_factor = 38805
gcp_factor = 38805
gcp_factor = 38805
gcp_factor = 38805
gcp_factor = 38805
gcp_factor = 38805
gcp_factor = 38805
gcp_factor = 38805
gcp_factor = 38805
gcp_factor = 38805
gcp_factor = 38805
gcp_factor = 38805
gcp_factor = 38805
gcp_factor = 38805
gcp_factor = 38805
gcp_factor = 38805
gcp_factor = 38805
gcp_factor = 38805
gcp_factor = 38805
gcp_factor = 38805
gcp_factor = 38805
gcp_factor = 38805
gcp_factor = 38805
gcp_factor = 38805
gcp_factor = 38805
gcp_factor = 38805
gcp_factor = 38805
gcp_factor = 38805
gcp_factor = 38805
gcp_factor = 38805
gcp_factor = 38805
gcp_factor = 38805
gcp_factor = 38805
gcp_factor = 38805
gcp_factor = 38805
gcp_factor = 38805
gcp_factor = 38805
gcp_factor = 38805
gcp_factor = 38805
gcp_factor = 38805
gcp_factor = 38805
gcp_factor = 38805
gcp_factor = 38805
gcp_factor = 38805
gcp_factor = 38805
gcp_factor = 38805
gcp_factor = 38805
gcp_factor = 38805
gcp_factor = 38805
gcp_factor = 38805
gcp_factor = 38805
gcp_factor = 38805
gcp_factor = 38805
gcp_factor = 38805
gcp_factor = 38805
gcp_factor = 38805
gcp_factor = 38805
gcp_factor = 38805
gcp_factor = 38805
gcp_factor = 38805
gcp_factor = 38805
gcp_factor = 38805
gcp_factor = 38805
gcp_factor = 38805
gcp_factor = 38805
gcp_factor = 38805
gcp_factor = 38805
gcp_factor = 38805
gcp_factor = 38805
gcp_factor = 38805
gcp_factor = 38805
gcp_factor = 38805
gcp_factor = 38805
gcp_factor = 38805
gcp_factor = 38805
gcp_factor = 38805
gcp_factor = 38805
gcp_factor = 38805
gcp_factor = 38805
gcp_factor = 38805
gcp_factor = 38805
gcp_factor = 38805
gcp_factor = 38805
gcp_factor = 38805
gcp_factor = 38805
gcp_factor = 38805
gcp_factor = 38805
gcp_factor = 38805
gcp_factor = 38805
gcp_factor = 38805
gcp_factor = 38805
gcp_factor = 38805
gcp_factor = 38805
gcp_factor = 38805
gcp_factor = 38805
gcp_factor = 38805
gcp_factor = 38805
gcp_factor = 38805
gcp_factor = 38805
gcp_factor = 38805
gcp_factor = 38805
gcp_factor = 38805
gcp_factor = 38805
gcp_factor = 38805
gcp_factor = 38805
gcp_factor = 38805
gcp_factor = 38805
gcp_factor = 38805
gcp_factor = 38805
gcp_factor = 38805
gcp_factor = 38805
gcp_factor = 38805
gcp_factor = 38805
gcp_factor = 38805
gcp_factor = 38805
gcp_factor = 38805
gcp_factor = 38805
gcp_factor = 38805
gcp_factor = 38805
gcp_factor = 38805
gcp_factor = 38805
gcp_factor = 38805
gcp_factor = 38805
gcp_factor = 38805
gcp_factor = 38805
gcp_factor = 38805
gcp_factor = 38805
gcp_factor = 38805
gcp_factor = 38805
gcp_factor = 38805
gcp_factor = 38805
gcp_factor = 38805
gcp_factor = 38805
gcp_factor = 38805
gcp_factor = 38805
gcp_factor = 38805
gcp_factor = 38805
gcp_factor = 38805
gcp_factor = 38805
gcp_factor = 38805
gcp_factor = 38805
gcp_factor = 38805
gcp_factor = 38805
gcp_factor = 38805
gcp_factor = 38805
gcp_factor = 38805
gcp_factor = 38805
gcp_factor = 38805
gcp_factor = 38805
gcp_factor = 38805
gcp_factor = 38805
gcp_factor = 38805
gcp_factor = 38805
gcp_factor = 38805
gcp_factor = 38805
gcp_factor = 38805
gcp_factor = 38805
gcp_factor = 38805
gcp_factor = 38805
gcp_factor = 38805
gcp_factor = 38805
gcp_factor = 38805
gcp_factor = 38805
gcp_factor = 38805
gcp_factor = 38805
gcp_factor = 38805
gcp_factor = 38805
gcp_factor = 38805
gcp_factor = 38805
gcp_factor = 38805
gcp_factor = 38805
gcp_factor = 38805
gcp_factor = 38805
gcp_factor = 38805
gcp_factor = 38805
gcp_factor = 38805
gcp_factor = 38805
gcp_factor = 38805
gcp_factor = 38805
gcp_factor = 38805
gcp_factor = 38805
gcp_factor = 38805
gcp_factor = 38805
gcp_factor = 38805
gcp_factor = 38805
gcp_factor = 38805
gcp_factor = 38805
gcp_factor = 38805
gcp_factor = 38805
gcp_factor = 38805
gcp_factor = 38805
gcp_factor = 38805
gcp_factor = 38805
gcp_factor = 38805
gcp_factor = 38805
gcp_factor = 38805
gcp_factor = 38805
gcp_factor = 38805
gcp_factor = 38805
gcp_factor = 38805
gcp_factor = 38805
gcp_factor = 38805
gcp_factor = 38805
gcp_factor = 38805
gcp_factor = 38805
gcp_factor = 38805
gcp_factor = 38805
gcp_factor = 38805
gcp_factor = 38805
gcp_factor = 38805
gcp_factor = 38805
gcp_factor = 38805
gcp_factor = 38805
gcp_factor = 38805
gcp_factor = 38805
gcp_factor = 38805
gcp_factor = 38805
gcp_factor = 38805
gcp_factor = 38805
gcp_factor = 38805
gcp_factor = 38805
gcp_factor = 38805
gcp_factor = 38805
gcp_factor = 38805
gcp_factor = 38805
gcp_factor = 38805
gcp_factor = 38805
gcp_factor = 38805
gcp_factor = 38805
gcp_factor = 38805
gcp_factor = 38805
gcp_factor = 38805
gcp_factor = 38805
gcp_factor = 38805
gcp_factor = 38805
gcp_factor = 38805
gcp_factor = 38805
gcp_factor = 38805
gcp_factor = 38805
gcp_factor = 38805
gcp_factor = 38805
gcp_factor = 38805
gcp_factor = 38805
gcp_factor = 38805
gcp_factor = 38805
gcp_factor = 38805
gcp_factor = 38805
gcp_factor = 38805
gcp_factor = 38805
gcp_factor = 38805
gcp_factor = 38805
gcp_factor = 38805
gcp_factor = 38805
gcp_factor = 38805
gcp_factor = 38805
gcp_factor = 38805
gcp_factor = 38805
gcp_factor = 38805
gcp_factor = 38805
gcp_factor = 38805
gcp_factor = 38805
gcp_factor = 38805
gcp_factor = 38805
gcp_factor = 38805
gcp_factor = 38805
gcp_factor = 38805
gcp_factor = 38805
gcp_factor = 38805
gcp_factor = 38805
gcp_factor = 38805
gcp_factor = 38805
gcp_factor = 38805
gcp_factor = 38805
gcp_factor = 38805
gcp_factor = 38805
gcp_factor = 38805
gcp_factor = 38805
gcp_factor = 38805
gcp_factor = 38805
gcp_factor = 38805
gcp_factor = 38805
gcp_factor = 38805
gcp_factor = 38805
gcp_factor = 38805
gcp_factor = 38805
gcp_factor = 38805
gcp_factor = 38805
gcp_factor = 38805
gcp_factor = 38805
gcp_factor = 38805
gcp_factor = 38805
gcp_factor = 38805
gcp_factor = 38805
gcp_factor = 38805
gcp_factor = 38805
gcp_factor = 38805
gcp_factor = 38805
gcp_factor = 38805
gcp_factor = 38805
gcp_factor = 38805
gcp_factor = 38805
gcp_factor = 38805
gcp_factor = 38805
gcp_factor = 38805
gcp_factor = 38805
gcp_factor = 38805
gcp_factor = 38805
gcp_factor = 38805
gcp_factor = 38805
gcp_factor = 38805
gcp_factor = 38805
gcp_factor = 38805
gcp_factor = 38805
gcp_factor = 38805
gcp_factor = 38805
gcp_factor = 38805
gcp_factor = 38805
gcp_factor = 38805
gcp_factor = 38805
gcp_factor = 38805
gcp_factor = 38805
gcp_factor = 38805
gcp_factor = 38805
gcp_factor = 38805
gcp_factor = 38805
gcp_factor = 38805
gcp_factor = 38805
gcp_factor = 38805
gcp_factor = 38805
gcp_factor = 38805
gcp_factor = 38805
gcp_factor = 38805
gcp_factor = 38805
gcp_factor = 38805
gcp_factor = 38805
gcp_factor = 38805
gcp_factor = 38805
gcp_factor = 38805
gcp_factor = 38805
gcp_factor = 38805
gcp_factor = 38805
gcp_factor = 38805
gcp_factor = 38805
gcp_factor = 38805
gcp_factor = 38805
gcp_factor = 38805
gcp_factor = 38805
gcp_factor = 38805
gcp_factor = 38805
gcp_factor = 38805
gcp_factor = 38805
gcp_factor = 38805
gcp_factor = 38805
gcp_factor = 38805
gcp_factor = 38805
gcp_factor = 38805
gcp_factor = 38805
gcp_factor = 38805
gcp_factor = 38805
gcp_factor = 38805
gcp_factor = 38805
gcp_factor = 38805
gcp_factor = 38805
gcp_factor = 38805
gcp_factor = 38805
gcp_factor = 38805
gcp_factor = 38805
gcp_factor = 38805
gcp_factor = 38805
gcp_factor = 38805
gcp_factor = 38805
gcp_factor = 38805
gcp_factor = 38805
gcp_factor = 38805
gcp_factor = 38805
gcp_factor = 38805
gcp_factor = 38805
gcp_factor = 38805
gcp_factor = 38805
gcp_factor = 38805
gcp_factor = 38805
gcp_factor = 38805
gcp_factor = 38805
gcp_factor = 38805
gcp_factor = 38805
gcp_factor = 38805
gcp_factor = 38805
gcp_factor = 38805
gcp_factor = 38805
gcp_factor = 38805
gcp_factor = 38805
gcp_factor = 38805
gcp_factor = 38805
gcp_factor = 38805
gcp_factor = 38805
gcp_factor = 38805
gcp_factor = 38805
gcp_factor = 38805
gcp_factor = 38805
gcp_factor = 38805
gcp_factor = 38805
gcp_factor = 38805
gcp_factor = 38805
gcp_factor = 38805
gcp_factor = 38805
gcp_factor = 38805
gcp_factor = 38805
gcp_factor = 38805
gcp_factor = 38805
gcp_factor = 38805
gcp_factor = 38805
gcp_factor = 38805
gcp_factor = 38805
gcp_factor = 38805
gcp_factor = 38805
gcp_factor = 38805
gcp_factor = 38805
gcp_factor = 38805
gcp_factor = 38805
gcp_factor = 38805
gcp_factor = 38805
gcp_factor = 38805
gcp_factor = 38805
gcp_factor = 38805
gcp_factor = 38805
gcp_factor = 38805
gcp_factor = 38805
gcp_factor = 38805
gcp_factor = 38805
gcp_factor = 38805
gcp_factor = 38805
gcp_factor = 38805
gcp_factor = 38805
gcp_factor = 38805
gcp_factor = 38805
gcp_factor = 38805
gcp_factor = 38805
gcp_factor = 38805
gcp_factor = 38805
gcp_factor = 38805
gcp_factor = 38805
gcp_factor = 38805
gcp_factor = 38805
gcp_factor = 38805
gcp_factor = 38805
gcp_factor = 38805
gcp_factor = 38805
gcp_factor = 38805
gcp_factor = 38805
gcp_factor = 38805
gcp_factor = 38805
gcp_factor = 38805
gcp_factor = 38805
gcp_factor = 38805
gcp_factor = 38805
gcp_factor = 38805
gcp_factor = 38805
gcp_factor = 38805
gcp_factor = 38805
gcp_factor = 38805
gcp_factor = 38805
gcp_factor = 38805
gcp_factor = 38805
gcp_factor = 38805
gcp_factor = 38805
gcp_factor = 38805
gcp_factor = 38805
gcp_factor = 38805
gcp_factor = 38805
gcp_factor = 38805
gcp_factor = 38805
gcp_factor = 38805
gcp_factor = 38805
gcp_factor = 38805
gcp_factor = 38805
gcp_factor = 38805
gcp_factor = 38805
gcp_factor = 38805
gcp_factor = 38805
gcp_factor = 38805
gcp_factor = 38805
gcp_factor = 38805
gcp_factor = 38805
gcp_factor = 38805
gcp_factor = 38805
gcp_factor = 38805
gcp_factor = 38805
gcp_factor = 38805
gcp_factor = 38805
gcp_factor = 38805
gcp_factor = 38805
gcp_factor = 38805
gcp_factor = 38805
gcp_factor = 38805
gcp_factor = 38805
gcp_factor = 38805
gcp_factor = 38805
gcp_factor = 38805
gcp_factor = 38805
gcp_factor = 38805
gcp_factor = 38805
gcp_factor = 38805
gcp_factor = 38805
gcp_factor = 38805
gcp_factor = 38805
gcp_factor = 38805
gcp_factor = 38805
gcp_factor = 38805
gcp_factor = 38805
gcp_factor = 38805
gcp_factor = 38805
gcp_factor = 38805
gcp_factor = 38805
gcp_factor = 38805
gcp_factor = 38805
gcp_factor = 38805
gcp_factor = 38805
gcp_factor = 38805
gcp_factor = 38805
gcp_factor = 38805
gcp_factor = 38805
gcp_factor = 38805
gcp_factor = 38805
gcp_factor = 38805
gcp_factor = 38805
gcp_factor = 38805
gcp_factor = 38805
gcp_factor = 38805
gcp_factor = 38805
gcp_factor = 38805
gcp_factor = 38805
gcp_factor = 38805
gcp_factor = 38805
gcp_factor = 38805
gcp_factor = 38805
gcp_factor = 38805
gcp_factor = 38805
gcp_factor = 38805
gcp_factor = 38805
gcp_factor = 38805
gcp_factor = 38805
gcp_factor = 38805
gcp_factor = 38805
gcp_factor = 38805
gcp_factor = 38805
gcp_factor = 38805
gcp_factor = 38805
gcp_factor = 38805
gcp_factor = 38805
gcp_factor = 38805
gcp_factor = 38805
gcp_factor = 38805
gcp_factor = 38805
gcp_factor = 38805
gcp_factor = 38805
gcp_factor = 38805
gcp_factor = 38805
gcp_factor = 38805
gcp_factor = 38805
gcp_factor = 38805
gcp_factor = 38805
gcp_factor = 38805
gcp_factor = 38805
gcp_factor = 38805
gcp_factor = 38805
gcp_factor = 38805
gcp_factor = 38805
gcp_factor = 38805
gcp_factor = 38805
gcp_factor = 38805
gcp_factor = 38805
gcp_factor = 38805
gcp_factor = 38805
gcp_factor = 38805
gcp_factor = 38805
gcp_factor = 38805
gcp_factor = 38805
gcp_factor = 38805
gcp_factor = 38805
gcp_factor = 38805
gcp_factor = 38805
gcp_factor = 38805
gcp_factor = 38805
gcp_factor = 38805
gcp_factor = 38805
gcp_factor = 38805
gcp_factor = 38805
gcp_factor = 38805
gcp_factor = 38805
gcp_factor = 38805
gcp_factor = 38805
gcp_factor = 38805
gcp_factor = 38805
gcp_factor = 38805
gcp_factor = 38805
gcp_factor = 38805
gcp_factor = 38805
gcp_factor = 38805
gcp_factor = 38805
gcp_factor = 38805
[...]
penalized hit
gcp_factor = 1570448
gcp_factor = 1570448
penalized hit
gcp_factor = 1570447
penalized hit
gcp_factor = 1570446
avoided miss
gcp_factor = 1570526
gcp_factor = 1570526
penalized hit
gcp_factor = 1570525
gcp_factor = 1570525
penalized hit
gcp_factor = 1570524
penalized hit
gcp_factor = 1570523
penalized hit
gcp_factor = 1570522
gcp_factor = 1570522
gcp_factor = 1570522
gcp_factor = 1570522
penalized hit
gcp_factor = 1570521
penalized hit
gcp_factor = 1570520
avoided miss
gcp_factor = 1570600
gcp_factor = 1570600
penalized hit
gcp_factor = 1570599
penalized hit
gcp_factor = 1570598
avoided miss
gcp_factor = 1570678
gcp_factor = 1570678
avoided miss
gcp_factor = 1570758
penalized hit
gcp_factor = 1570757
penalized hit
gcp_factor = 1570756
gcp_factor = 1570756
gcp_factor = 1570756
gcp_factor = 1570756
avoided miss
gcp_factor = 1570836
penalized hit
gcp_factor = 1570835
gcp_factor = 1570835
penalized hit
gcp_factor = 1570834
penalized hit
gcp_factor = 1570833
avoided miss
gcp_factor = 1570913
gcp_factor = 1570913
penalized hit
gcp_factor = 1570912
gcp_factor = 1570912
avoided miss
gcp_factor = 1570992
penalized hit
gcp_factor = 1570991
penalized hit
gcp_factor = 1570990
penalized hit
gcp_factor = 1570989
gcp_factor = 1570989
gcp_factor = 1570989
gcp_factor = 1570989
gcp_factor = 1570989
gcp_factor = 1570989
gcp_factor = 1570989
gcp_factor = 1570989
gcp_factor = 1570989
gcp_factor = 1570989
gcp_factor = 1570989
gcp_factor = 1570989
gcp_factor = 1570989
gcp_factor = 1570989
gcp_factor = 1570989
gcp_factor = 1570989
gcp_factor = 1570989
gcp_factor = 1570989
gcp_factor = 1570989
gcp_factor = 1570989
gcp_factor = 1570989
gcp_factor = 1570989
gcp_factor = 1570989
gcp_factor = 1570989
gcp_factor = 1570989
gcp_factor = 1570989
gcp_factor = 1570989
gcp_factor = 1570989
gcp_factor = 1570989
gcp_factor = 1570989
gcp_factor = 1570989
gcp_factor = 1570989
gcp_factor = 1570989
gcp_factor = 1570989
gcp_factor = 1570989
gcp_factor = 1570989
gcp_factor = 1570989
gcp_factor = 1570989
gcp_factor = 1570989
gcp_factor = 1570989
gcp_factor = 1570989
gcp_factor = 1570989
gcp_factor = 1570989
gcp_factor = 1570989
gcp_factor = 1570989
gcp_factor = 1570989
gcp_factor = 1570989
gcp_factor = 1570989
gcp_factor = 1570989
gcp_factor = 1570989
gcp_factor = 1570989
gcp_factor = 1570989
gcp_factor = 1570989
gcp_factor = 1570989
gcp_factor = 1570989
gcp_factor = 1570989
gcp_factor = 1570989
gcp_factor = 1570989
gcp_factor = 1570989
gcp_factor = 1570989
gcp_factor = 1570989
gcp_factor = 1570989
gcp_factor = 1570989
gcp_factor = 1570989
gcp_factor = 1570989
gcp_factor = 1570989
gcp_factor = 1570989
gcp_factor = 1570989
gcp_factor = 1570989
gcp_factor = 1570989
gcp_factor = 1570989
gcp_factor = 1570989
gcp_factor = 1570989
gcp_factor = 1570989
gcp_factor = 1570989
gcp_factor = 1570989
gcp_factor = 1570989
gcp_factor = 1570989
gcp_factor = 1570989
gcp_factor = 1570989
gcp_factor = 1570989
gcp_factor = 1570989
gcp_factor = 1570989
gcp_factor = 1570989
gcp_factor = 1570989
gcp_factor = 1570989
gcp_factor = 1570989
gcp_factor = 1570989
gcp_factor = 1570989
gcp_factor = 1570989
gcp_factor = 1570989
gcp_factor = 1570989
gcp_factor = 1570989
gcp_factor = 1570989
gcp_factor = 1570989
gcp_factor = 1570989
gcp_factor = 1570989
gcp_factor = 1570989
gcp_factor = 1570989
gcp_factor = 1570989
gcp_factor = 1570989
gcp_factor = 1570989
gcp_factor = 1570989
gcp_factor = 1570989
gcp_factor = 1570989
gcp_factor = 1570989
gcp_factor = 1570989
gcp_factor = 1570989
gcp_factor = 1570989
gcp_factor = 1570989
gcp_factor = 1570989
gcp_factor = 1570989
gcp_factor = 1570989
gcp_factor = 1570989
gcp_factor = 1570989
gcp_factor = 1570989
gcp_factor = 1570989
gcp_factor = 1570989
gcp_factor = 1570989
gcp_factor = 1570989
gcp_factor = 1570989
gcp_factor = 1570989
gcp_factor = 1570989
gcp_factor = 1570989
gcp_factor = 1570989
gcp_factor = 1570989
gcp_factor = 1570989
gcp_factor = 1570989
gcp_factor = 1570989
gcp_factor = 1570989
gcp_factor = 1570989
gcp_factor = 1570989
gcp_factor = 1570989
gcp_factor = 1570989
gcp_factor = 1570989
gcp_factor = 1570989
gcp_factor = 1570989
gcp_factor = 1570989
gcp_factor = 1570989
gcp_factor = 1570989
gcp_factor = 1570989
gcp_factor = 1570989
gcp_factor = 1570989
gcp_factor = 1570989
gcp_factor = 1570989
gcp_factor = 1570989
gcp_factor = 1570989
gcp_factor = 1570989
gcp_factor = 1570989
gcp_factor = 1570989
gcp_factor = 1570989
gcp_factor = 1570989
gcp_factor = 1570989
gcp_factor = 1570989
gcp_factor = 1570989
gcp_factor = 1570989
gcp_factor = 1570989
gcp_factor = 1570989
gcp_factor = 1570989
gcp_factor = 1570989
gcp_factor = 1570989
gcp_factor = 1570989
gcp_factor = 1570989
gcp_factor = 1570989
gcp_factor = 1570989
gcp_factor = 1570989
gcp_factor = 1570989
gcp_factor = 1570989
gcp_factor = 1570989
gcp_factor = 1570989
gcp_factor = 1570989
gcp_factor = 1570989
gcp_factor = 1570989
gcp_factor = 1570989
gcp_factor = 1570989
gcp_factor = 1570989
gcp_factor = 1570989
gcp_factor = 1570989
gcp_factor = 1570989
gcp_factor = 1570989
gcp_factor = 1570989
gcp_factor = 1570989
gcp_factor = 1570989
gcp_factor = 1570989
gcp_factor = 1570989
gcp_factor = 1570989
gcp_factor = 1570989
gcp_factor = 1570989
gcp_factor = 1570989
gcp_factor = 1570989
gcp_factor = 1570989
gcp_factor = 1570989
gcp_factor = 1570989
gcp_factor = 1570989
gcp_factor = 1570989
gcp_factor = 1570989
gcp_factor = 1570989
gcp_factor = 1570989
gcp_factor = 1570989
gcp_factor = 1570989
gcp_factor = 1570989
gcp_factor = 1570989
gcp_factor = 1570989
gcp_factor = 1570989
gcp_factor = 1570989
gcp_factor = 1570989
gcp_factor = 1570989
gcp_factor = 1570989
gcp_factor = 1570989
gcp_factor = 1570989
gcp_factor = 1570989
gcp_factor = 1570989
gcp_factor = 1570989
gcp_factor = 1570989
gcp_factor = 1570989
gcp_factor = 1570989
gcp_factor = 1570989
gcp_factor = 1570989
gcp_factor = 1570989
gcp_factor = 1570989
gcp_factor = 1570989
gcp_factor = 1570989
gcp_factor = 1570989
gcp_factor = 1570989
gcp_factor = 1570989
gcp_factor = 1570989
gcp_factor = 1570989
gcp_factor = 1570989
gcp_factor = 1570989
gcp_factor = 1570989
gcp_factor = 1570989
gcp_factor = 1570989
gcp_factor = 1570989
gcp_factor = 1570989
gcp_factor = 1570989
gcp_factor = 1570989
gcp_factor = 1570989
gcp_factor = 1570989
gcp_factor = 1570989
gcp_factor = 1570989
gcp_factor = 1570989
gcp_factor = 1570989
gcp_factor = 1570989
gcp_factor = 1570989
gcp_factor = 1570989
gcp_factor = 1570989
gcp_factor = 1570989
gcp_factor = 1570989
gcp_factor = 1570989
gcp_factor = 1570989
gcp_factor = 1570989
gcp_factor = 1570989
gcp_factor = 1570989
gcp_factor = 1570989
gcp_factor = 1570989
gcp_factor = 1570989
gcp_factor = 1570989
gcp_factor = 1570989
gcp_factor = 1570989
gcp_factor = 1570989
gcp_factor = 1570989
gcp_factor = 1570989
gcp_factor = 1570989
gcp_factor = 1570989
gcp_factor = 1570989
gcp_factor = 1570989
gcp_factor = 1570989
gcp_factor = 1570989
gcp_factor = 1570989
gcp_factor = 1570989
gcp_factor = 1570989
gcp_factor = 1570989
gcp_factor = 1570989
gcp_factor = 1570989
gcp_factor = 1570989
gcp_factor = 1570989
gcp_factor = 1570989
gcp_factor = 1570989
gcp_factor = 1570989
gcp_factor = 1570989
gcp_factor = 1570989
gcp_factor = 1570989
gcp_factor = 1570989
gcp_factor = 1570989
gcp_factor = 1570989
penalized hit
gcp_factor = 1570988
penalized hit
gcp_factor = 1570987
gcp_factor = 1570987
gcp_factor = 1570987
gcp_factor = 1570987
gcp_factor = 1570987
gcp_factor = 1570987
gcp_factor = 1570987
gcp_factor = 1570987
gcp_factor = 1570987
gcp_factor = 1570987
gcp_factor = 1570987
gcp_factor = 1570987
gcp_factor = 1570987
gcp_factor = 1570987
gcp_factor = 1570987
gcp_factor = 1570987
gcp_factor = 1570987
gcp_factor = 1570987
gcp_factor = 1570987
gcp_factor = 1570987
gcp_factor = 1570987
gcp_factor = 1570987
gcp_factor = 1570987
penalized hit
gcp_factor = 1570986
gcp_factor = 1570986
gcp_factor = 1570986
gcp_factor = 1570986
gcp_factor = 1570986
gcp_factor = 1570986
gcp_factor = 1570986
gcp_factor = 1570986
gcp_factor = 1570986
gcp_factor = 1570986
gcp_factor = 1570986
gcp_factor = 1570986
gcp_factor = 1570986
gcp_factor = 1570986
gcp_factor = 1570986
gcp_factor = 1570986
gcp_factor = 1570986
gcp_factor = 1570986
gcp_factor = 1570986
gcp_factor = 1570986
gcp_factor = 1570986
gcp_factor = 1570986
gcp_factor = 1570986
gcp_factor = 1570986
gcp_factor = 1570986
gcp_factor = 1570986
gcp_factor = 1570986
gcp_factor = 1570986
gcp_factor = 1570986
gcp_factor = 1570986
gcp_factor = 1570986
gcp_factor = 1570986
gcp_factor = 1570986
gcp_factor = 1570986
gcp_factor = 1570986
gcp_factor = 1570986
gcp_factor = 1570986
gcp_factor = 1570986
gcp_factor = 1570986
gcp_factor = 1570986
gcp_factor = 1570986
gcp_factor = 1570986
gcp_factor = 1570986
gcp_factor = 1570986
gcp_factor = 1570986
gcp_factor = 1570986
gcp_factor = 1570986
gcp_factor = 1570986
gcp_factor = 1570986
gcp_factor = 1570986
gcp_factor = 1570986
gcp_factor = 1570986
gcp_factor = 1570986
gcp_factor = 1570986
gcp_factor = 1570986
gcp_factor = 1570986
gcp_factor = 1570986
gcp_factor = 1570986
gcp_factor = 1570986
gcp_factor = 1570986
gcp_factor = 1570986
gcp_factor = 1570986
gcp_factor = 1570986
gcp_factor = 1570986
gcp_factor = 1570986
gcp_factor = 1570986
gcp_factor = 1570986
gcp_factor = 1570986
gcp_factor = 1570986
gcp_factor = 1570986
gcp_factor = 1570986
penalized hit
gcp_factor = 1570985
avoided miss
gcp_factor = 1571065
penalized hit
gcp_factor = 1571064
penalized hit
gcp_factor = 1571063
avoided miss
gcp_factor = 1571143
gcp_factor = 1571143
gcp_factor = 1571143
gcp_factor = 1571143
gcp_factor = 1571143
gcp_factor = 1571143
gcp_factor = 1571143
gcp_factor = 1571143
gcp_factor = 1571143
gcp_factor = 1571143
gcp_factor = 1571143
gcp_factor = 1571143
gcp_factor = 1571143
gcp_factor = 1571143
gcp_factor = 1571143
gcp_factor = 1571143
gcp_factor = 1571143
gcp_factor = 1571143
gcp_factor = 1571143
gcp_factor = 1571143
gcp_factor = 1571143
gcp_factor = 1571143
gcp_factor = 1571143
penalized hit
gcp_factor = 1571142
penalized hit
gcp_factor = 1571141
gcp_factor = 1571141
gcp_factor = 1571141
gcp_factor = 1571141
gcp_factor = 1571141
penalized hit
gcp_factor = 1571140
penalized hit
gcp_factor = 1571139
gcp_factor = 1571139
gcp_factor = 1571139
gcp_factor = 1571139
gcp_factor = 1571139
avoided miss
gcp_factor = 1571219
penalized hit
gcp_factor = 1571218
gcp_factor = 1571218
gcp_factor = 1571218
gcp_factor = 1571218
gcp_factor = 1571218
gcp_factor = 1571218
gcp_factor = 1571218
gcp_factor = 1571218
gcp_factor = 1571218
gcp_factor = 1571218
gcp_factor = 1571218
gcp_factor = 1571218
gcp_factor = 1571218
gcp_factor = 1571218
gcp_factor = 1571218
gcp_factor = 1571218
gcp_factor = 1571218
gcp_factor = 1571218
gcp_factor = 1571218
gcp_factor = 1571218
gcp_factor = 1571218
gcp_factor = 1571218
gcp_factor = 1571218
gcp_factor = 1571218
gcp_factor = 1571218
gcp_factor = 1571218
gcp_factor = 1571218
gcp_factor = 1571218
gcp_factor = 1571218
penalized hit
gcp_factor = 1571217
gcp_factor = 1571217
gcp_factor = 1571217
gcp_factor = 1571217
gcp_factor = 1571217
gcp_factor = 1571217
gcp_factor = 1571217
gcp_factor = 1571217
penalized hit
gcp_factor = 1571216
penalized hit
gcp_factor = 1571215
gcp_factor = 1571215
gcp_factor = 1571215
gcp_factor = 1571215
gcp_factor = 1571215
gcp_factor = 1571215
gcp_factor = 1571215
gcp_factor = 1571215
gcp_factor = 1571215
gcp_factor = 1571215
gcp_factor = 1571215
gcp_factor = 1571215
gcp_factor = 1571215
gcp_factor = 1571215
gcp_factor = 1571215
gcp_factor = 1571215
gcp_factor = 1571215
gcp_factor = 1571215
gcp_factor = 1571215
gcp_factor = 1571215
gcp_factor = 1571215
gcp_factor = 1571215
gcp_factor = 1571215
gcp_factor = 1571215
gcp_factor = 1571215
gcp_factor = 1571215
gcp_factor = 1571215
gcp_factor = 1571215
penalized hit
gcp_factor = 1571214
gcp_factor = 1571214
avoided miss
gcp_factor = 1571294
gcp_factor = 1571294
penalized hit
gcp_factor = 1571293
gcp_factor = 1571293
penalized hit
gcp_factor = 1571292
penalized hit
gcp_factor = 1571291
gcp_factor = 1571291
gcp_factor = 1571291
penalized hit
gcp_factor = 1571290
penalized hit
gcp_factor = 1571289
penalized hit
gcp_factor = 1571288
penalized hit
gcp_factor = 1571287
penalized hit
gcp_factor = 1571286
gcp_factor = 1571286
penalized hit
gcp_factor = 1571285
gcp_factor = 1571285
gcp_factor = 1571285
gcp_factor = 1571285
gcp_factor = 1571285
gcp_factor = 1571285
gcp_factor = 1571285
gcp_factor = 1571285
gcp_factor = 1571285
gcp_factor = 1571285
gcp_factor = 1571285
avoided miss
gcp_factor = 1571365
penalized hit
gcp_factor = 1571364
gcp_factor = 1571364
gcp_factor = 1571364
gcp_factor = 1571364
gcp_factor = 1571364
gcp_factor = 1571364
gcp_factor = 1571364
gcp_factor = 1571364
gcp_factor = 1571364
gcp_factor = 1571364
gcp_factor = 1571364
gcp_factor = 1571364
gcp_factor = 1571364
gcp_factor = 1571364
gcp_factor = 1571364
penalized hit
gcp_factor = 1571363
penalized hit
gcp_factor = 1571362
gcp_factor = 1571362
gcp_factor = 1571362
gcp_factor = 1571362
gcp_factor = 1571362
penalized hit
gcp_factor = 1571361
penalized hit
gcp_factor = 1571360
penalized hit
gcp_factor = 1571359
gcp_factor = 1571359
gcp_factor = 1571359
gcp_factor = 1571359
gcp_factor = 1571359
gcp_factor = 1571359
gcp_factor = 1571359
gcp_factor = 1571359
gcp_factor = 1571359
gcp_factor = 1571359
gcp_factor = 1571359
gcp_factor = 1571359
gcp_factor = 1571359
gcp_factor = 1571359
gcp_factor = 1571359
gcp_factor = 1571359
gcp_factor = 1571359
gcp_factor = 1571359
gcp_factor = 1571359
gcp_factor = 1571359
penalized hit
gcp_factor = 1571358
gcp_factor = 1571358
gcp_factor = 1571358
gcp_factor = 1571358
gcp_factor = 1571358
gcp_factor = 1571358
gcp_factor = 1571358
gcp_factor = 1571358
gcp_factor = 1571358
gcp_factor = 1571358
gcp_factor = 1571358
gcp_factor = 1571358
gcp_factor = 1571358
gcp_factor = 1571358
gcp_factor = 1571358
gcp_factor = 1571358
penalized hit
gcp_factor = 1571357
gcp_factor = 1571357
gcp_factor = 1571357
gcp_factor = 1571357
gcp_factor = 1571357
gcp_factor = 1571357
gcp_factor = 1571357
gcp_factor = 1571357
gcp_factor = 1571357
gcp_factor = 1571357
gcp_factor = 1571357
gcp_factor = 1571357
gcp_factor = 1571357
gcp_factor = 1571357
gcp_factor = 1571357
gcp_factor = 1571357
gcp_factor = 1571357
gcp_factor = 1571357
gcp_factor = 1571357
gcp_factor = 1571357
gcp_factor = 1571357
gcp_factor = 1571357
gcp_factor = 1571357
gcp_factor = 1571357
gcp_factor = 1571357
gcp_factor = 1571357
gcp_factor = 1571357
gcp_factor = 1571357
gcp_factor = 1571357
gcp_factor = 1571357
gcp_factor = 1571357
gcp_factor = 1571357
gcp_factor = 1571357
gcp_factor = 1571357
gcp_factor = 1571357
penalized hit
gcp_factor = 1571356
gcp_factor = 1571356
gcp_factor = 1571356
gcp_factor = 1571356
avoided miss
gcp_factor = 1571436
gcp_factor = 1571436
penalized hit
gcp_factor = 1571435
gcp_factor = 1571435
penalized hit
gcp_factor = 1571434
gcp_factor = 1571434
avoided miss
gcp_factor = 1571514
avoided miss
gcp_factor = 1571594
gcp_factor = 1571594
penalized hit
gcp_factor = 1571593
gcp_factor = 1571593
gcp_factor = 1571593
penalized hit
gcp_factor = 1571592
penalized hit
gcp_factor = 1571591
gcp_factor = 1571591
gcp_factor = 1571591
penalized hit
gcp_factor = 1571590
penalized hit
gcp_factor = 1571589
gcp_factor = 1571589
gcp_factor = 1571589
penalized hit
gcp_factor = 1571588
penalized hit
gcp_factor = 1571587
gcp_factor = 1571587
gcp_factor = 1571587
penalized hit
gcp_factor = 1571586
penalized hit
gcp_factor = 1571585
gcp_factor = 1571585
gcp_factor = 1571585
penalized hit
gcp_factor = 1571584
penalized hit
gcp_factor = 1571583
gcp_factor = 1571583
gcp_factor = 1571583
penalized hit
gcp_factor = 1571582
gcp_factor = 1571582
avoided miss
gcp_factor = 1571662
penalized hit
gcp_factor = 1571661
gcp_factor = 1571661
gcp_factor = 1571661
penalized hit
gcp_factor = 1571660
penalized hit
gcp_factor = 1571659
gcp_factor = 1571659
gcp_factor = 1571659
avoided miss
gcp_factor = 1571739
gcp_factor = 1571739
avoided miss
gcp_factor = 1571819
avoided miss
gcp_factor = 1571899
penalized hit
gcp_factor = 1571898
gcp_factor = 1571898
gcp_factor = 1571898
gcp_factor = 1571898
gcp_factor = 1571898
gcp_factor = 1571898
gcp_factor = 1571898
gcp_factor = 1571898
gcp_factor = 1571898
gcp_factor = 1571898
gcp_factor = 1571898
gcp_factor = 1571898
gcp_factor = 1571898
avoided miss
gcp_factor = 1571978
penalized hit
gcp_factor = 1571977
gcp_factor = 1571977
gcp_factor = 1571977
gcp_factor = 1571977
gcp_factor = 1571977
gcp_factor = 1571977
gcp_factor = 1571977
gcp_factor = 1571977
gcp_factor = 1571977
gcp_factor = 1571977
gcp_factor = 1571977
gcp_factor = 1571977
gcp_factor = 1571977
gcp_factor = 1571977
gcp_factor = 1571977
penalized hit
gcp_factor = 1571976
penalized hit
gcp_factor = 1571975
gcp_factor = 1571975
gcp_factor = 1571975
gcp_factor = 1571975
gcp_factor = 1571975
penalized hit
gcp_factor = 1571974
gcp_factor = 1571974
penalized hit
gcp_factor = 1571973
gcp_factor = 1571973
avoided miss
gcp_factor = 1572053
gcp_factor = 1572053
gcp_factor = 1572053
gcp_factor = 1572053
gcp_factor = 1572053
gcp_factor = 1572053
gcp_factor = 1572053
gcp_factor = 1572053
gcp_factor = 1572053
gcp_factor = 1572053
gcp_factor = 1572053
gcp_factor = 1572053
gcp_factor = 1572053
gcp_factor = 1572053
gcp_factor = 1572053
gcp_factor = 1572053
gcp_factor = 1572053
gcp_factor = 1572053
gcp_factor = 1572053
penalized hit
gcp_factor = 1572052
gcp_factor = 1572052
gcp_factor = 1572052
penalized hit
gcp_factor = 1572051
gcp_factor = 1572051
penalized hit
gcp_factor = 1572050
gcp_factor = 1572050
gcp_factor = 1572050
gcp_factor = 1572050
gcp_factor = 1572050
gcp_factor = 1572050
gcp_factor = 1572050
gcp_factor = 1572050
gcp_factor = 1572050
gcp_factor = 1572050
gcp_factor = 1572050
gcp_factor = 1572050
gcp_factor = 1572050
gcp_factor = 1572050
gcp_factor = 1572050
gcp_factor = 1572050
gcp_factor = 1572050
gcp_factor = 1572050
gcp_factor = 1572050
gcp_factor = 1572050
gcp_factor = 1572050
gcp_factor = 1572050
gcp_factor = 1572050
gcp_factor = 1572050
gcp_factor = 1572050
gcp_factor = 1572050
gcp_factor = 1572050
gcp_factor = 1572050
gcp_factor = 1572050
gcp_factor = 1572050
gcp_factor = 1572050
gcp_factor = 1572050
gcp_factor = 1572050
gcp_factor = 1572050
gcp_factor = 1572050
gcp_factor = 1572050
gcp_factor = 1572050
gcp_factor = 1572050
gcp_factor = 1572050
gcp_factor = 1572050
gcp_factor = 1572050
gcp_factor = 1572050
gcp_factor = 1572050
gcp_factor = 1572050
gcp_factor = 1572050
gcp_factor = 1572050
gcp_factor = 1572050
gcp_factor = 1572050
gcp_factor = 1572050
penalized hit
gcp_factor = 1572049
gcp_factor = 1572049
avoided miss
gcp_factor = 1572129
gcp_factor = 1572129
avoided miss
gcp_factor = 1572209
gcp_factor = 1572209
penalized hit
gcp_factor = 1572208
gcp_factor = 1572208
avoided miss
gcp_factor = 1572288
penalized hit
gcp_factor = 1572287
avoided miss
gcp_factor = 1572367
penalized hit
gcp_factor = 1572366
gcp_factor = 1572366
gcp_factor = 1572366
penalized hit
gcp_factor = 1572365
penalized hit
gcp_factor = 1572364
gcp_factor = 1572364
gcp_factor = 1572364
penalized hit
gcp_factor = 1572363
penalized hit
gcp_factor = 1572362
gcp_factor = 1572362
gcp_factor = 1572362
penalized hit
gcp_factor = 1572361
penalized hit
gcp_factor = 1572360
gcp_factor = 1572360
gcp_factor = 1572360
penalized hit
gcp_factor = 1572359
penalized hit
gcp_factor = 1572358
gcp_factor = 1572358
gcp_factor = 1572358
penalized hit
gcp_factor = 1572357
penalized hit
gcp_factor = 1572356
gcp_factor = 1572356
gcp_factor = 1572356
penalized hit
gcp_factor = 1572355
gcp_factor = 1572355
penalized hit
gcp_factor = 1572354
avoided miss
gcp_factor = 1572434
penalized hit
gcp_factor = 1572433
penalized hit
gcp_factor = 1572432
gcp_factor = 1572432
gcp_factor = 1572432
penalized hit
gcp_factor = 1572431
penalized hit
gcp_factor = 1572430
gcp_factor = 1572430
penalized hit
gcp_factor = 1572429
avoided miss
gcp_factor = 1572509
avoided miss
gcp_factor = 1572589
penalized hit
gcp_factor = 1572588
gcp_factor = 1572588
gcp_factor = 1572588
avoided miss
gcp_factor = 1572668
gcp_factor = 1572668
Exiting @ tick 7298520500 because a thread reached the max instruction count
