Global frequency set at 1000000000000 ticks per second
gem5 Simulator System.  https://www.gem5.org
gem5 is copyrighted software; use the --copyright option for details.

gem5 version 22.0.0.2
gem5 compiled Dec  7 2024 03:15:40
gem5 started Dec  7 2024 03:18:32
gem5 executing on qstruct.ecn.purdue.edu, pid 25951
command line: ./build/ECE565-ARM/gem5.opt configs/spec/spec_se.py --cpu-type ArmMinorCPU --l1d_size=64kB --l1i_size=64kB --caches --l2cache --l2_compressor -b astar --maxinsts=10000000

**** REAL SIMULATION ****
avodiable miss
avodiable miss
avodiable miss
avodiable miss
avodiable miss
avodiable miss
avodiable miss
avodiable miss
avodiable miss
avodiable miss
avodiable miss
avodiable miss
avodiable miss
avodiable miss
avodiable miss
avodiable miss
avodiable miss
avodiable miss
avodiable miss
avodiable miss
avodiable miss
avodiable miss
avodiable miss
avodiable miss
avodiable miss
avodiable miss
avodiable miss
avodiable miss
avodiable miss
avodiable miss
avodiable miss
avodiable miss
avodiable miss
avodiable miss
avodiable miss
avodiable miss
avodiable miss
avodiable miss
avodiable miss
avodiable miss
avodiable miss
avodiable miss
avodiable miss
avodiable miss
avodiable miss
avodiable miss
avodiable miss
avodiable miss
avodiable miss
avodiable miss
avodiable miss
avodiable miss
avodiable miss
avodiable miss
avodiable miss
avodiable miss
avodiable miss
avodiable miss
avodiable miss
avodiable miss
avodiable miss
avodiable miss
avodiable miss
avodiable miss
avodiable miss
avodiable miss
avodiable miss
avodiable miss
avodiable miss
avodiable miss
avodiable miss
update - gcp: 0, gcpfactor: 71, compression size: 512 
avodiable miss
avodiable miss
avodiable miss
avodiable miss
avodiable miss
avodiable miss
avodiable miss
avodiable miss
avodiable miss
avodiable miss
avodiable miss
avodiable miss
avodiable miss
avodiable miss
avodiable miss
avodiable miss
avodiable miss
avodiable miss
avodiable miss
avodiable miss
avodiable miss
avodiable miss
avodiable miss
avodiable miss
avodiable miss
avodiable miss
update - gcp: 0, gcpfactor: 97, compression size: 512 
avodiable miss
avodiable miss
avodiable miss
avodiable miss
avodiable miss
avodiable miss
avodiable miss
avodiable miss
avodiable miss
avodiable miss
avodiable miss
avodiable miss
avodiable miss
avodiable miss
avodiable miss
update - gcp: 0, gcpfactor: 112, compression size: 512 
update - gcp: 0, gcpfactor: 112, compression size: 512 
avodiable miss
avodiable miss
avodiable miss
avodiable miss
avodiable miss
avodiable miss
avodiable miss
avodiable miss
avodiable miss
avodiable miss
avodiable miss
avodiable miss
avodiable miss
avodiable miss
avodiable miss
avodiable miss
avodiable miss
avodiable miss
avodiable miss
avodiable miss
avodiable miss
avodiable miss
avodiable miss
avodiable miss
avodiable miss
update - gcp: 0, gcpfactor: 137, compression size: 512 
avodiable miss
avodiable miss
avodiable miss
avodiable miss
avodiable miss
avodiable miss
avodiable miss
avodiable miss
avodiable miss
avodiable miss
avodiable miss
avodiable miss
avodiable miss
avodiable miss
avodiable miss
avodiable miss
update - gcp: 0, gcpfactor: 153, compression size: 512 
avodiable miss
update - gcp: 0, gcpfactor: 154, compression size: 512 
avodiable miss
avodiable miss
avodiable miss
update - gcp: 0, gcpfactor: 157, compression size: 512 
avodiable miss
avodiable miss
avodiable miss
avodiable miss
avodiable miss
avodiable miss
avodiable miss
avodiable miss
avodiable miss
avodiable miss
avodiable miss
avodiable miss
avodiable miss
avodiable miss
avodiable miss
avodiable miss
avodiable miss
avodiable miss
avodiable miss
avodiable miss
avodiable miss
avodiable miss
avodiable miss
avodiable miss
avodiable miss
avodiable miss
avodiable miss
avodiable miss
avodiable miss
avodiable miss
avodiable miss
avodiable miss
avodiable miss
avodiable miss
avodiable miss
avodiable miss
avodiable miss
update - gcp: 0, gcpfactor: 194, compression size: 512 
avodiable miss
update - gcp: 0, gcpfactor: 195, compression size: 512 
update - gcp: 0, gcpfactor: 195, compression size: 512 
avodiable miss
avodiable miss
avodiable miss
avodiable miss
avodiable miss
avodiable miss
update - gcp: 0, gcpfactor: 201, compression size: 512 
avodiable miss
avodiable miss
update - gcp: 0, gcpfactor: 203, compression size: 512 
update - gcp: 0, gcpfactor: 203, compression size: 512 
update - gcp: 0, gcpfactor: 203, compression size: 512 
update - gcp: 0, gcpfactor: 203, compression size: 512 
avodiable miss
update - gcp: 0, gcpfactor: 204, compression size: 512 
update - gcp: 0, gcpfactor: 204, compression size: 512 
avodiable miss
update - gcp: 0, gcpfactor: 205, compression size: 512 
avodiable miss
update - gcp: 0, gcpfactor: 206, compression size: 512 
avodiable miss
update - gcp: 0, gcpfactor: 207, compression size: 512 
update - gcp: 0, gcpfactor: 207, compression size: 512 
avodiable miss
avodiable miss
update - gcp: 0, gcpfactor: 209, compression size: 512 
avodiable miss
avodiable miss
avodiable miss
avodiable miss
avodiable miss
avodiable miss
update - gcp: 0, gcpfactor: 215, compression size: 512 
update - gcp: 0, gcpfactor: 215, compression size: 512 
avodiable miss
avodiable miss
update - gcp: 0, gcpfactor: 217, compression size: 512 
avodiable miss
avodiable miss
avodiable miss
avodiable miss
avodiable miss
avodiable miss
avodiable miss
avodiable miss
avodiable miss
avodiable miss
avodiable miss
avodiable miss
avodiable miss
update - gcp: 0, gcpfactor: 230, compression size: 512 
avodiable miss
avodiable miss
avodiable miss
avodiable miss
update - gcp: 0, gcpfactor: 234, compression size: 512 
avodiable miss
update - gcp: 0, gcpfactor: 235, compression size: 512 
avodiable miss
update - gcp: 0, gcpfactor: 236, compression size: 512 
avodiable miss
update - gcp: 0, gcpfactor: 237, compression size: 512 
avodiable miss
avodiable miss
avodiable miss
avodiable miss
avodiable miss
avodiable miss
avodiable miss
update - gcp: 0, gcpfactor: 244, compression size: 512 
update - gcp: 0, gcpfactor: 244, compression size: 512 
update - gcp: 0, gcpfactor: 244, compression size: 512 
update - gcp: 0, gcpfactor: 244, compression size: 512 
avodiable miss
update - gcp: 0, gcpfactor: 245, compression size: 512 
avodiable miss
update - gcp: 0, gcpfactor: 246, compression size: 512 
update - gcp: 0, gcpfactor: 246, compression size: 512 
avodiable miss
update - gcp: 0, gcpfactor: 247, compression size: 512 
update - gcp: 0, gcpfactor: 247, compression size: 512 
update - gcp: 0, gcpfactor: 247, compression size: 512 
update - gcp: 0, gcpfactor: 247, compression size: 512 
avodiable miss
update - gcp: 0, gcpfactor: 248, compression size: 512 
update - gcp: 0, gcpfactor: 248, compression size: 512 
avodiable miss
update - gcp: 0, gcpfactor: 249, compression size: 512 
update - gcp: 0, gcpfactor: 249, compression size: 512 
avodiable miss
avodiable miss
avodiable miss
avodiable miss
avodiable miss
update - gcp: 0, gcpfactor: 254, compression size: 512 
avodiable miss
update - gcp: 0, gcpfactor: 255, compression size: 512 
avodiable miss
update - gcp: 0, gcpfactor: 256, compression size: 512 
update - gcp: 0, gcpfactor: 256, compression size: 512 
update - gcp: 0, gcpfactor: 256, compression size: 512 
avodiable miss
update - gcp: 0, gcpfactor: 257, compression size: 512 
avodiable miss
update - gcp: 0, gcpfactor: 258, compression size: 512 
avodiable miss
avodiable miss
update - gcp: 0, gcpfactor: 260, compression size: 512 
update - gcp: 0, gcpfactor: 260, compression size: 512 
avodiable miss
update - gcp: 0, gcpfactor: 261, compression size: 512 
update - gcp: 0, gcpfactor: 261, compression size: 512 
update - gcp: 0, gcpfactor: 261, compression size: 512 
avodiable miss
update - gcp: 0, gcpfactor: 262, compression size: 512 
avodiable miss
avodiable miss
avodiable miss
avodiable miss
avodiable miss
avodiable miss
avodiable miss
avodiable miss
avodiable miss
avodiable miss
avodiable miss
avodiable miss
avodiable miss
avodiable miss
avodiable miss
avodiable miss
avodiable miss
avodiable miss
avodiable miss
avodiable miss
avodiable miss
avodiable miss
avodiable miss
avodiable miss
avodiable miss
avodiable miss
avodiable miss
avodiable miss
avodiable miss
avodiable miss
avodiable miss
avodiable miss
avodiable miss
avodiable miss
avodiable miss
avodiable miss
avodiable miss
avodiable miss
avodiable miss
avodiable miss
avodiable miss
avodiable miss
avodiable miss
avodiable miss
avodiable miss
avodiable miss
avodiable miss
avodiable miss
update - gcp: 0, gcpfactor: 310, compression size: 512 
avodiable miss
update - gcp: 0, gcpfactor: 311, compression size: 512 
avodiable miss
avodiable miss
update - gcp: 0, gcpfactor: 313, compression size: 512 
update - gcp: 0, gcpfactor: 313, compression size: 512 
avodiable miss
avodiable miss
update - gcp: 0, gcpfactor: 315, compression size: 512 
avodiable miss
avodiable miss
avodiable miss
update - gcp: 0, gcpfactor: 318, compression size: 512 
avodiable miss
update - gcp: 0, gcpfactor: 319, compression size: 512 
avodiable miss
update - gcp: 0, gcpfactor: 320, compression size: 512 
avodiable miss
update - gcp: 0, gcpfactor: 321, compression size: 512 
update - gcp: 0, gcpfactor: 321, compression size: 512 
avodiable miss
update - gcp: 0, gcpfactor: 322, compression size: 512 
avodiable miss
update - gcp: 0, gcpfactor: 323, compression size: 512 
update - gcp: 0, gcpfactor: 323, compression size: 512 
avodiable miss
update - gcp: 0, gcpfactor: 324, compression size: 512 
avodiable miss
avodiable miss
update - gcp: 0, gcpfactor: 326, compression size: 512 
avodiable miss
update - gcp: 0, gcpfactor: 327, compression size: 512 
update - gcp: 0, gcpfactor: 327, compression size: 512 
avodiable miss
avodiable miss
avodiable miss
avodiable miss
avodiable miss
update - gcp: 0, gcpfactor: 332, compression size: 512 
avodiable miss
update - gcp: 0, gcpfactor: 333, compression size: 512 
update - gcp: 0, gcpfactor: 333, compression size: 512 
avodiable miss
update - gcp: 0, gcpfactor: 334, compression size: 512 
update - gcp: 0, gcpfactor: 334, compression size: 512 
update - gcp: 0, gcpfactor: 334, compression size: 512 
update - gcp: 0, gcpfactor: 334, compression size: 512 
update - gcp: 0, gcpfactor: 334, compression size: 512 
avodiable miss
update - gcp: 0, gcpfactor: 335, compression size: 512 
update - gcp: 0, gcpfactor: 335, compression size: 512 
update - gcp: 0, gcpfactor: 335, compression size: 512 
avodiable miss
avodiable miss
avodiable miss
avodiable miss
update - gcp: 0, gcpfactor: 339, compression size: 512 
avodiable miss
update - gcp: 0, gcpfactor: 340, compression size: 512 
update - gcp: 0, gcpfactor: 340, compression size: 512 
avodiable miss
avodiable miss
update - gcp: 0, gcpfactor: 342, compression size: 512 
update - gcp: 0, gcpfactor: 342, compression size: 512 
update - gcp: 0, gcpfactor: 342, compression size: 512 
avodiable miss
avodiable miss
avodiable miss
avodiable miss
avodiable miss
avodiable miss
avodiable miss
avodiable miss
update - gcp: 0, gcpfactor: 350, compression size: 512 
avodiable miss
update - gcp: 0, gcpfactor: 351, compression size: 512 
avodiable miss
update - gcp: 0, gcpfactor: 352, compression size: 512 
avodiable miss
avodiable miss
avodiable miss
update - gcp: 0, gcpfactor: 355, compression size: 512 
avodiable miss
avodiable miss
update - gcp: 0, gcpfactor: 357, compression size: 512 
avodiable miss
update - gcp: 0, gcpfactor: 358, compression size: 512 
avodiable miss
update - gcp: 0, gcpfactor: 359, compression size: 512 
avoided miss
update - gcp: 0, gcpfactor: 360, compression size: 93 
avoided miss
update - gcp: 0, gcpfactor: 361, compression size: 40 
penalized hit
avodiable miss
avodiable miss
penalized hit
update - gcp: 0, gcpfactor: 361, compression size: 115 
avoided miss
avoided miss
penalized hit
avoided miss
avoided miss
penalized hit
update - gcp: 0, gcpfactor: 363, compression size: 147 
penalized hit
avodiable miss
avodiable miss
avodiable miss
avodiable miss
avodiable miss
avodiable miss
avodiable miss
avodiable miss
avodiable miss
avodiable miss
avodiable miss
avodiable miss
avodiable miss
avodiable miss
avodiable miss
avodiable miss
avodiable miss
avodiable miss
avodiable miss
avodiable miss
avodiable miss
avodiable miss
avodiable miss
avodiable miss
avodiable miss
avodiable miss
avodiable miss
avodiable miss
avodiable miss
avodiable miss
avodiable miss
avodiable miss
avodiable miss
avodiable miss
avodiable miss
avodiable miss
avodiable miss
avodiable miss
avodiable miss
avodiable miss
avodiable miss
avodiable miss
avodiable miss
avodiable miss
avodiable miss
avodiable miss
avodiable miss
avodiable miss
avodiable miss
avodiable miss
avodiable miss
avodiable miss
avodiable miss
penalized hit
avoided miss
avoided miss
avodiable miss
avodiable miss
avoided miss
update - gcp: 0, gcpfactor: 419, compression size: 66 
avoided miss
update - gcp: 0, gcpfactor: 420, compression size: 70 
avodiable miss
avodiable miss
avodiable miss
avodiable miss
avodiable miss
avodiable miss
avodiable miss
avodiable miss
avodiable miss
avodiable miss
avoided miss
update - gcp: 0, gcpfactor: 431, compression size: 58 
avodiable miss
avodiable miss
avodiable miss
avodiable miss
avodiable miss
avodiable miss
avodiable miss
avodiable miss
avodiable miss
avodiable miss
avodiable miss
avodiable miss
avodiable miss
avodiable miss
avodiable miss
avodiable miss
avodiable miss
avodiable miss
avodiable miss
avodiable miss
avodiable miss
avodiable miss
avodiable miss
avodiable miss
avodiable miss
avodiable miss
avodiable miss
avodiable miss
avodiable miss
avodiable miss
avodiable miss
avodiable miss
avodiable miss
avodiable miss
avodiable miss
avodiable miss
avodiable miss
avodiable miss
avodiable miss
avodiable miss
avodiable miss
avodiable miss
avodiable miss
avodiable miss
avodiable miss
avodiable miss
avodiable miss
avodiable miss
avodiable miss
avodiable miss
avodiable miss
avodiable miss
avodiable miss
avodiable miss
avodiable miss
avodiable miss
avodiable miss
avodiable miss
avodiable miss
penalized hit
update - gcp: 0, gcpfactor: 489, compression size: 82 
avodiable miss
avodiable miss
avodiable miss
avodiable miss
avodiable miss
avodiable miss
avodiable miss
avodiable miss
avodiable miss
avodiable miss
avodiable miss
avodiable miss
avodiable miss
avodiable miss
avodiable miss
avodiable miss
avodiable miss
avodiable miss
avodiable miss
avodiable miss
avodiable miss
avodiable miss
avodiable miss
avodiable miss
avodiable miss
avodiable miss
avoided miss
update - gcp: 0, gcpfactor: 516, compression size: 512 
penalized hit
update - gcp: 0, gcpfactor: 515, compression size: 188 
avoided miss
update - gcp: 0, gcpfactor: 516, compression size: 205 
avoided miss
update - gcp: 0, gcpfactor: 517, compression size: 213 
avoided miss
update - gcp: 0, gcpfactor: 518, compression size: 212 
avoided miss
update - gcp: 0, gcpfactor: 519, compression size: 211 
avoided miss
update - gcp: 0, gcpfactor: 520, compression size: 183 
avoided miss
update - gcp: 0, gcpfactor: 521, compression size: 512 
avoided miss
update - gcp: 0, gcpfactor: 522, compression size: 152 
avoided miss
update - gcp: 0, gcpfactor: 523, compression size: 512 
avoided miss
update - gcp: 0, gcpfactor: 524, compression size: 191 
avoided miss
update - gcp: 0, gcpfactor: 525, compression size: 194 
penalized hit
update - gcp: 0, gcpfactor: 524, compression size: 248 
penalized hit
penalized hit
update - gcp: 0, gcpfactor: 522, compression size: 104 
penalized hit
update - gcp: 0, gcpfactor: 521, compression size: 129 
avodiable miss
avoided miss
update - gcp: 0, gcpfactor: 523, compression size: 246 
avodiable miss
avodiable miss
avoided miss
update - gcp: 0, gcpfactor: 526, compression size: 239 
avodiable miss
avodiable miss
avoided miss
update - gcp: 0, gcpfactor: 529, compression size: 512 
penalized hit
update - gcp: 0, gcpfactor: 528, compression size: 512 
avodiable miss
avoided miss
update - gcp: 0, gcpfactor: 530, compression size: 187 
avoided miss
update - gcp: 0, gcpfactor: 531, compression size: 166 
avodiable miss
avodiable miss
avoided miss
update - gcp: 0, gcpfactor: 534, compression size: 512 
penalized hit
update - gcp: 0, gcpfactor: 533, compression size: 512 
avodiable miss
avodiable miss
avoided miss
update - gcp: 0, gcpfactor: 536, compression size: 210 
avoided miss
update - gcp: 0, gcpfactor: 537, compression size: 512 
avodiable miss
avodiable miss
avoided miss
update - gcp: 0, gcpfactor: 540, compression size: 512 
penalized hit
update - gcp: 0, gcpfactor: 539, compression size: 149 
avodiable miss
penalized hit
avoided miss
avodiable miss
avoided miss
penalized hit
update - gcp: 0, gcpfactor: 541, compression size: 88 
avoided miss
avoided miss
avoided miss
avoided miss
avodiable miss
penalized hit
update - gcp: 0, gcpfactor: 545, compression size: 181 
avodiable miss
avodiable miss
avoided miss
update - gcp: 0, gcpfactor: 548, compression size: 188 
avodiable miss
avoided miss
update - gcp: 0, gcpfactor: 550, compression size: 213 
avodiable miss
penalized hit
penalized hit
penalized hit
update - gcp: 0, gcpfactor: 548, compression size: 53 
avoided miss
update - gcp: 0, gcpfactor: 549, compression size: 512 
penalized hit
update - gcp: 0, gcpfactor: 548, compression size: 211 
avoided miss
update - gcp: 0, gcpfactor: 549, compression size: 136 
avoided miss
update - gcp: 0, gcpfactor: 550, compression size: 105 
avoided miss
update - gcp: 0, gcpfactor: 551, compression size: 512 
avodiable miss
avodiable miss
avodiable miss
avodiable miss
avodiable miss
avodiable miss
avodiable miss
penalized hit
update - gcp: 0, gcpfactor: 557, compression size: 133 
avodiable miss
penalized hit
update - gcp: 0, gcpfactor: 557, compression size: 67 
avodiable miss
penalized hit
update - gcp: 0, gcpfactor: 557, compression size: 70 
avoided miss
update - gcp: 0, gcpfactor: 558, compression size: 64 
avoided miss
update - gcp: 0, gcpfactor: 559, compression size: 52 
penalized hit
penalized hit
update - gcp: 0, gcpfactor: 557, compression size: 156 
penalized hit
penalized hit
avodiable miss
penalized hit
avodiable miss
avodiable miss
penalized hit
update - gcp: 0, gcpfactor: 556, compression size: 67 
avoided miss
update - gcp: 0, gcpfactor: 557, compression size: 248 
avoided miss
update - gcp: 0, gcpfactor: 558, compression size: 237 
avoided miss
update - gcp: 0, gcpfactor: 559, compression size: 104 
avoided miss
update - gcp: 0, gcpfactor: 560, compression size: 12 
avoided miss
update - gcp: 0, gcpfactor: 561, compression size: 151 
avoided miss
update - gcp: 0, gcpfactor: 562, compression size: 216 
penalized hit
update - gcp: 0, gcpfactor: 561, compression size: 66 
avodiable miss
avoided miss
update - gcp: 0, gcpfactor: 563, compression size: 37 
avodiable miss
avoided miss
update - gcp: 0, gcpfactor: 565, compression size: 512 
avodiable miss
avodiable miss
penalized hit
avodiable miss
penalized hit
avodiable miss
avodiable miss
avodiable miss
avodiable miss
avodiable miss
avodiable miss
avodiable miss
avodiable miss
avodiable miss
avodiable miss
avodiable miss
avodiable miss
avodiable miss
avodiable miss
avodiable miss
avodiable miss
avodiable miss
avodiable miss
avodiable miss
avodiable miss
avoided miss
update - gcp: 0, gcpfactor: 587, compression size: 12 
avoided miss
update - gcp: 0, gcpfactor: 588, compression size: 129 
penalized hit
update - gcp: 0, gcpfactor: 587, compression size: 78 
avoided miss
update - gcp: 0, gcpfactor: 588, compression size: 53 
avoided miss
update - gcp: 0, gcpfactor: 589, compression size: 115 
avoided miss
update - gcp: 0, gcpfactor: 590, compression size: 60 
avoided miss
update - gcp: 0, gcpfactor: 591, compression size: 12 
penalized hit
update - gcp: 0, gcpfactor: 590, compression size: 12 
penalized hit
update - gcp: 0, gcpfactor: 589, compression size: 78 
update - gcp: 0, gcpfactor: 589, compression size: 512 
update - gcp: 0, gcpfactor: 589, compression size: 512 
update - gcp: 0, gcpfactor: 589, compression size: 512 
update - gcp: 0, gcpfactor: 589, compression size: 203 
update - gcp: 0, gcpfactor: 589, compression size: 512 
avoided miss
avoided miss
update - gcp: 0, gcpfactor: 591, compression size: 73 
penalized hit
avodiable miss
avodiable miss
avodiable miss
avodiable miss
avodiable miss
avodiable miss
penalized hit
update - gcp: 0, gcpfactor: 595, compression size: 12 
avodiable miss
avoided miss
update - gcp: 0, gcpfactor: 597, compression size: 37 
avoided miss
avoided miss
update - gcp: 0, gcpfactor: 599, compression size: 64 
avoided miss
update - gcp: 0, gcpfactor: 600, compression size: 70 
penalized hit
penalized hit
update - gcp: 0, gcpfactor: 598, compression size: 70 
avodiable miss
avodiable miss
avoided miss
update - gcp: 0, gcpfactor: 601, compression size: 67 
avodiable miss
avodiable miss
penalized hit
avodiable miss
penalized hit
update - gcp: 0, gcpfactor: 602, compression size: 53 
penalized hit
update - gcp: 0, gcpfactor: 601, compression size: 67 
avoided miss
update - gcp: 0, gcpfactor: 602, compression size: 149 
avoided miss
update - gcp: 0, gcpfactor: 603, compression size: 111 
avoided miss
update - gcp: 0, gcpfactor: 604, compression size: 103 
avoided miss
update - gcp: 0, gcpfactor: 605, compression size: 114 
penalized hit
update - gcp: 0, gcpfactor: 604, compression size: 64 
penalized hit
avodiable miss
avodiable miss
avodiable miss
avodiable miss
avodiable miss
avodiable miss
avodiable miss
avodiable miss
avodiable miss
penalized hit
update - gcp: 0, gcpfactor: 611, compression size: 159 
avoided miss
update - gcp: 0, gcpfactor: 612, compression size: 512 
penalized hit
update - gcp: 0, gcpfactor: 611, compression size: 248 
avoided miss
update - gcp: 0, gcpfactor: 612, compression size: 142 
avoided miss
update - gcp: 0, gcpfactor: 613, compression size: 512 
avoided miss
update - gcp: 0, gcpfactor: 614, compression size: 183 
avoided miss
update - gcp: 0, gcpfactor: 615, compression size: 126 
avoided miss
update - gcp: 0, gcpfactor: 616, compression size: 242 
avoided miss
update - gcp: 0, gcpfactor: 617, compression size: 512 
avoided miss
update - gcp: 0, gcpfactor: 618, compression size: 208 
avoided miss
update - gcp: 0, gcpfactor: 619, compression size: 512 
avoided miss
update - gcp: 0, gcpfactor: 620, compression size: 232 
avoided miss
update - gcp: 0, gcpfactor: 621, compression size: 203 
avoided miss
update - gcp: 0, gcpfactor: 622, compression size: 512 
penalized hit
update - gcp: 0, gcpfactor: 621, compression size: 512 
avoided miss
update - gcp: 0, gcpfactor: 622, compression size: 184 
avoided miss
update - gcp: 0, gcpfactor: 623, compression size: 12 
avodiable miss
avoided miss
update - gcp: 0, gcpfactor: 625, compression size: 158 
avoided miss
update - gcp: 0, gcpfactor: 626, compression size: 212 
avodiable miss
avoided miss
update - gcp: 0, gcpfactor: 628, compression size: 205 
avoided miss
update - gcp: 0, gcpfactor: 629, compression size: 12 
avodiable miss
avoided miss
update - gcp: 0, gcpfactor: 631, compression size: 117 
avoided miss
avoided miss
avoided miss
avoided miss
avoided miss
avodiable miss
penalized hit
avodiable miss
avodiable miss
avodiable miss
avodiable miss
penalized hit
penalized hit
update - gcp: 0, gcpfactor: 638, compression size: 58 
avodiable miss
avodiable miss
penalized hit
penalized hit
avoided miss
update - gcp: 0, gcpfactor: 639, compression size: 205 
avoided miss
update - gcp: 0, gcpfactor: 640, compression size: 211 
penalized hit
avoided miss
update - gcp: 0, gcpfactor: 640, compression size: 37 
avoided miss
update - gcp: 0, gcpfactor: 641, compression size: 37 
avoided miss
update - gcp: 0, gcpfactor: 642, compression size: 53 
avoided miss
update - gcp: 0, gcpfactor: 643, compression size: 12 
avodiable miss
avodiable miss
avodiable miss
avodiable miss
avodiable miss
avodiable miss
avodiable miss
avodiable miss
avodiable miss
avodiable miss
avodiable miss
avodiable miss
avodiable miss
avodiable miss
avodiable miss
avodiable miss
avodiable miss
avodiable miss
avodiable miss
avodiable miss
avodiable miss
avodiable miss
avodiable miss
avodiable miss
avodiable miss
avodiable miss
avodiable miss
avodiable miss
avodiable miss
avodiable miss
avodiable miss
avodiable miss
avodiable miss
avodiable miss
avodiable miss
avodiable miss
avodiable miss
avodiable miss
avodiable miss
avodiable miss
avodiable miss
avodiable miss
avodiable miss
avodiable miss
avodiable miss
avodiable miss
avodiable miss
update - gcp: 0, gcpfactor: 690, compression size: 512 
avodiable miss
penalized hit
update - gcp: 0, gcpfactor: 690, compression size: 230 
avodiable miss
avoided miss
update - gcp: 0, gcpfactor: 692, compression size: 12 
avoided miss
update - gcp: 0, gcpfactor: 693, compression size: 95 
avoided miss
update - gcp: 0, gcpfactor: 694, compression size: 224 
avoided miss
update - gcp: 0, gcpfactor: 695, compression size: 512 
penalized hit
update - gcp: 0, gcpfactor: 694, compression size: 115 
avoided miss
avoided miss
update - gcp: 0, gcpfactor: 696, compression size: 60 
penalized hit
update - gcp: 0, gcpfactor: 695, compression size: 94 
avodiable miss
avodiable miss
avodiable miss
avodiable miss
avodiable miss
avodiable miss
avoided miss
avodiable miss
avodiable miss
avoided miss
update - gcp: 0, gcpfactor: 705, compression size: 172 
avodiable miss
avodiable miss
avoided miss
update - gcp: 0, gcpfactor: 708, compression size: 178 
avoided miss
update - gcp: 0, gcpfactor: 709, compression size: 12 
avodiable miss
avodiable miss
avoided miss
update - gcp: 0, gcpfactor: 712, compression size: 170 
avoided miss
update - gcp: 0, gcpfactor: 713, compression size: 512 
avodiable miss
avoided miss
update - gcp: 0, gcpfactor: 715, compression size: 512 
penalized hit
update - gcp: 0, gcpfactor: 714, compression size: 512 
avoided miss
update - gcp: 0, gcpfactor: 715, compression size: 512 
penalized hit
update - gcp: 0, gcpfactor: 714, compression size: 512 
avoided miss
update - gcp: 0, gcpfactor: 715, compression size: 512 
penalized hit
update - gcp: 0, gcpfactor: 714, compression size: 512 
avodiable miss
avoided miss
update - gcp: 0, gcpfactor: 716, compression size: 512 
penalized hit
update - gcp: 0, gcpfactor: 715, compression size: 512 
avodiable miss
avodiable miss
avoided miss
update - gcp: 0, gcpfactor: 718, compression size: 512 
penalized hit
update - gcp: 0, gcpfactor: 717, compression size: 512 
avodiable miss
avodiable miss
avoided miss
update - gcp: 0, gcpfactor: 720, compression size: 512 
penalized hit
update - gcp: 0, gcpfactor: 719, compression size: 512 
avodiable miss
avodiable miss
avoided miss
update - gcp: 0, gcpfactor: 722, compression size: 512 
penalized hit
update - gcp: 0, gcpfactor: 721, compression size: 512 
avodiable miss
avodiable miss
avoided miss
update - gcp: 0, gcpfactor: 724, compression size: 512 
penalized hit
update - gcp: 0, gcpfactor: 723, compression size: 512 
avodiable miss
avodiable miss
avoided miss
update - gcp: 0, gcpfactor: 726, compression size: 512 
penalized hit
update - gcp: 0, gcpfactor: 725, compression size: 512 
avodiable miss
avodiable miss
penalized hit
update - gcp: 0, gcpfactor: 726, compression size: 512 
penalized hit
avoided miss
update - gcp: 0, gcpfactor: 726, compression size: 512 
avodiable miss
avodiable miss
penalized hit
update - gcp: 0, gcpfactor: 727, compression size: 512 
avodiable miss
avoided miss
update - gcp: 0, gcpfactor: 729, compression size: 512 
penalized hit
update - gcp: 0, gcpfactor: 728, compression size: 512 
avoided miss
update - gcp: 0, gcpfactor: 729, compression size: 512 
penalized hit
update - gcp: 0, gcpfactor: 728, compression size: 512 
avoided miss
update - gcp: 0, gcpfactor: 729, compression size: 512 
penalized hit
update - gcp: 0, gcpfactor: 728, compression size: 512 
avoided miss
update - gcp: 0, gcpfactor: 729, compression size: 512 
penalized hit
update - gcp: 0, gcpfactor: 728, compression size: 512 
avoided miss
update - gcp: 0, gcpfactor: 729, compression size: 177 
avoided miss
update - gcp: 0, gcpfactor: 730, compression size: 244 
penalized hit
update - gcp: 0, gcpfactor: 729, compression size: 177 
avodiable miss
avodiable miss
avodiable miss
avodiable miss
avodiable miss
avodiable miss
avodiable miss
avodiable miss
avodiable miss
avodiable miss
avodiable miss
avodiable miss
avodiable miss
avodiable miss
avodiable miss
avodiable miss
avodiable miss
avodiable miss
avodiable miss
avodiable miss
avodiable miss
avodiable miss
avodiable miss
avodiable miss
avodiable miss
avodiable miss
avodiable miss
avodiable miss
avodiable miss
avodiable miss
avodiable miss
avodiable miss
avodiable miss
avodiable miss
avodiable miss
avodiable miss
avodiable miss
avodiable miss
avodiable miss
avodiable miss
avodiable miss
avodiable miss
avodiable miss
avodiable miss
avodiable miss
avodiable miss
avodiable miss
avodiable miss
avodiable miss
avodiable miss
avodiable miss
avodiable miss
avodiable miss
avodiable miss
avodiable miss
avodiable miss
avodiable miss
avodiable miss
avodiable miss
avodiable miss
avodiable miss
avodiable miss
avodiable miss
avodiable miss
avodiable miss
avodiable miss
avodiable miss
avodiable miss
avodiable miss
avodiable miss
avodiable miss
avodiable miss
avodiable miss
avodiable miss
avodiable miss
avodiable miss
avodiable miss
avodiable miss
avodiable miss
avodiable miss
avodiable miss
avodiable miss
avodiable miss
avodiable miss
avodiable miss
avodiable miss
avodiable miss
avodiable miss
avodiable miss
avodiable miss
avodiable miss
avodiable miss
avodiable miss
avodiable miss
avodiable miss
avodiable miss
avodiable miss
avodiable miss
avodiable miss
avodiable miss
avodiable miss
avodiable miss
avodiable miss
avodiable miss
avodiable miss
avodiable miss
avodiable miss
avodiable miss
avodiable miss
avodiable miss
avodiable miss
avodiable miss
avodiable miss
avodiable miss
avodiable miss
avodiable miss
avodiable miss
avodiable miss
avodiable miss
avodiable miss
avodiable miss
avodiable miss
avodiable miss
avodiable miss
avodiable miss
avodiable miss
avodiable miss
avodiable miss
avodiable miss
avodiable miss
avodiable miss
avodiable miss
avodiable miss
avodiable miss
avodiable miss
avodiable miss
avodiable miss
avodiable miss
avodiable miss
avodiable miss
avodiable miss
avodiable miss
avodiable miss
avodiable miss
avodiable miss
avodiable miss
avodiable miss
avodiable miss
avodiable miss
avodiable miss
avodiable miss
avodiable miss
avodiable miss
avodiable miss
avodiable miss
avodiable miss
avodiable miss
avodiable miss
avodiable miss
avodiable miss
avodiable miss
avodiable miss
avodiable miss
avodiable miss
avodiable miss
avodiable miss
avodiable miss
avodiable miss
avodiable miss
avodiable miss
avodiable miss
avodiable miss
avodiable miss
avodiable miss
avodiable miss
avodiable miss
avodiable miss
avodiable miss
avodiable miss
avodiable miss
avodiable miss
avodiable miss
avodiable miss
avodiable miss
avodiable miss
avodiable miss
avodiable miss
avodiable miss
avodiable miss
avodiable miss
avodiable miss
avodiable miss
avodiable miss
avodiable miss
avodiable miss
avodiable miss
avodiable miss
avodiable miss
avodiable miss
avodiable miss
avodiable miss
avodiable miss
avodiable miss
avodiable miss
avodiable miss
avodiable miss
avodiable miss
avodiable miss
avodiable miss
avodiable miss
avodiable miss
avodiable miss
avodiable miss
avodiable miss
avodiable miss
avodiable miss
avodiable miss
avodiable miss
avodiable miss
avodiable miss
avodiable miss
avodiable miss
avodiable miss
avodiable miss
avodiable miss
avodiable miss
avodiable miss
avodiable miss
avodiable miss
avodiable miss
avodiable miss
avodiable miss
avodiable miss
avodiable miss
avodiable miss
avodiable miss
avodiable miss
avodiable miss
avodiable miss
avodiable miss
avodiable miss
avodiable miss
avodiable miss
avodiable miss
avodiable miss
avodiable miss
avodiable miss
avodiable miss
avodiable miss
avodiable miss
avodiable miss
avodiable miss
avodiable miss
avodiable miss
avodiable miss
avodiable miss
avodiable miss
avodiable miss
avodiable miss
avodiable miss
avodiable miss
avodiable miss
avodiable miss
avodiable miss
avodiable miss
avodiable miss
avodiable miss
avodiable miss
avodiable miss
avodiable miss
avodiable miss
avodiable miss
avodiable miss
avodiable miss
avodiable miss
avodiable miss
avodiable miss
avodiable miss
avodiable miss
avodiable miss
avodiable miss
avodiable miss
avodiable miss
avodiable miss
avodiable miss
avodiable miss
avodiable miss
avodiable miss
avodiable miss
avodiable miss
avodiable miss
avodiable miss
avodiable miss
avodiable miss
avodiable miss
avodiable miss
avodiable miss
avodiable miss
avodiable miss
avodiable miss
avodiable miss
avodiable miss
avodiable miss
avodiable miss
avodiable miss
avodiable miss
avodiable miss
avodiable miss
avodiable miss
avodiable miss
avodiable miss
avodiable miss
avodiable miss
avodiable miss
avodiable miss
avodiable miss
avodiable miss
avodiable miss
avodiable miss
avodiable miss
avodiable miss
avodiable miss
avodiable miss
avodiable miss
avodiable miss
avodiable miss
avodiable miss
avodiable miss
avodiable miss
avodiable miss
avodiable miss
avodiable miss
avodiable miss
avodiable miss
avodiable miss
avodiable miss
avodiable miss
avodiable miss
avodiable miss
avodiable miss
avodiable miss
avodiable miss
avodiable miss
avodiable miss
avoided miss
update - gcp: 0, gcpfactor: 1074, compression size: 512 
avoided miss
penalized hit
penalized hit
update - gcp: 0, gcpfactor: 1073, compression size: 12 
avodiable miss
avodiable miss
avodiable miss
avodiable miss
avodiable miss
avodiable miss
avodiable miss
avodiable miss
avodiable miss
avodiable miss
avodiable miss
avodiable miss
avodiable miss
avodiable miss
avodiable miss
avodiable miss
avodiable miss
avodiable miss
avodiable miss
avodiable miss
avodiable miss
avodiable miss
avodiable miss
avodiable miss
avodiable miss
avodiable miss
avodiable miss
avodiable miss
avodiable miss
avodiable miss
avodiable miss
avodiable miss
avodiable miss
avodiable miss
avodiable miss
avodiable miss
avodiable miss
avodiable miss
avodiable miss
avodiable miss
avodiable miss
avodiable miss
avodiable miss
avodiable miss
avodiable miss
avodiable miss
avodiable miss
avodiable miss
avodiable miss
avodiable miss
avodiable miss
avodiable miss
avodiable miss
avodiable miss
avodiable miss
avodiable miss
avodiable miss
avodiable miss
avodiable miss
avodiable miss
avodiable miss
avodiable miss
avodiable miss
avodiable miss
avodiable miss
avodiable miss
avodiable miss
avodiable miss
avodiable miss
avodiable miss
avodiable miss
avodiable miss
avodiable miss
avodiable miss
avodiable miss
avodiable miss
avodiable miss
avodiable miss
avodiable miss
avodiable miss
avodiable miss
avodiable miss
avodiable miss
update - gcp: 0, gcpfactor: 1156, compression size: 512 
avoided miss
update - gcp: 0, gcpfactor: 1157, compression size: 248 
avoided miss
update - gcp: 0, gcpfactor: 1158, compression size: 104 
avodiable miss
avodiable miss
avodiable miss
avodiable miss
avodiable miss
avodiable miss
avodiable miss
avodiable miss
avodiable miss
avodiable miss
avodiable miss
avodiable miss
avodiable miss
avodiable miss
avodiable miss
avodiable miss
avodiable miss
avodiable miss
avodiable miss
avodiable miss
avodiable miss
avodiable miss
avodiable miss
avodiable miss
avodiable miss
avodiable miss
avodiable miss
avodiable miss
avodiable miss
avodiable miss
avodiable miss
avodiable miss
avodiable miss
avodiable miss
avodiable miss
avodiable miss
avodiable miss
avodiable miss
avodiable miss
avodiable miss
avodiable miss
avodiable miss
avodiable miss
avodiable miss
avodiable miss
avodiable miss
avodiable miss
avodiable miss
avodiable miss
avodiable miss
avodiable miss
avodiable miss
avodiable miss
avodiable miss
avodiable miss
avodiable miss
avodiable miss
avodiable miss
avodiable miss
avodiable miss
avodiable miss
avodiable miss
avodiable miss
avodiable miss
avodiable miss
avodiable miss
avodiable miss
avodiable miss
avodiable miss
avodiable miss
avodiable miss
avodiable miss
avodiable miss
avodiable miss
avodiable miss
avodiable miss
avodiable miss
avodiable miss
avodiable miss
avodiable miss
avodiable miss
avodiable miss
avodiable miss
avodiable miss
avodiable miss
avodiable miss
avodiable miss
avodiable miss
avodiable miss
avodiable miss
avodiable miss
avodiable miss
avodiable miss
avodiable miss
avodiable miss
avodiable miss
avodiable miss
avodiable miss
avodiable miss
avodiable miss
avodiable miss
avodiable miss
avodiable miss
avodiable miss
avodiable miss
avoided miss
update - gcp: 0, gcpfactor: 1264, compression size: 12 
avoided miss
update - gcp: 0, gcpfactor: 1265, compression size: 53 
avoided miss
update - gcp: 0, gcpfactor: 1266, compression size: 12 
avodiable miss
avodiable miss
avodiable miss
avodiable miss
avodiable miss
avodiable miss
avodiable miss
avodiable miss
avodiable miss
avodiable miss
avodiable miss
avodiable miss
avodiable miss
avodiable miss
avodiable miss
avodiable miss
avodiable miss
avodiable miss
avodiable miss
avodiable miss
avodiable miss
avodiable miss
avodiable miss
avodiable miss
avodiable miss
avodiable miss
avodiable miss
avodiable miss
avodiable miss
avodiable miss
avodiable miss
avodiable miss
avodiable miss
avodiable miss
avodiable miss
avodiable miss
avodiable miss
avodiable miss
avodiable miss
avodiable miss
avodiable miss
avodiable miss
avodiable miss
avodiable miss
avodiable miss
avodiable miss
avodiable miss
avodiable miss
avodiable miss
avodiable miss
avodiable miss
avodiable miss
avodiable miss
avodiable miss
avodiable miss
avodiable miss
avodiable miss
avodiable miss
avodiable miss
avodiable miss
avodiable miss
avodiable miss
avodiable miss
avodiable miss
avodiable miss
avodiable miss
avodiable miss
avodiable miss
avodiable miss
avodiable miss
avodiable miss
avodiable miss
avodiable miss
avodiable miss
avodiable miss
avodiable miss
avodiable miss
avodiable miss
avodiable miss
avodiable miss
avodiable miss
avodiable miss
avodiable miss
avodiable miss
avodiable miss
avodiable miss
avodiable miss
avodiable miss
avodiable miss
avodiable miss
avodiable miss
avodiable miss
avodiable miss
avodiable miss
avodiable miss
avodiable miss
avodiable miss
avodiable miss
avodiable miss
avodiable miss
avodiable miss
avodiable miss
avodiable miss
avodiable miss
avodiable miss
avodiable miss
avodiable miss
avodiable miss
avodiable miss
avodiable miss
avodiable miss
avodiable miss
avodiable miss
avodiable miss
avodiable miss
avodiable miss
avodiable miss
avodiable miss
avodiable miss
avodiable miss
avodiable miss
avodiable miss
avodiable miss
avodiable miss
avodiable miss
avodiable miss
avodiable miss
avodiable miss
avodiable miss
avodiable miss
avodiable miss
avodiable miss
avodiable miss
avodiable miss
avodiable miss
avodiable miss
avodiable miss
avodiable miss
avodiable miss
avodiable miss
avodiable miss
avodiable miss
avodiable miss
avodiable miss
avodiable miss
avodiable miss
avodiable miss
avodiable miss
avodiable miss
avodiable miss
avodiable miss
avodiable miss
avodiable miss
avodiable miss
avodiable miss
avodiable miss
avodiable miss
avodiable miss
avodiable miss
avodiable miss
avodiable miss
avodiable miss
avodiable miss
avodiable miss
avodiable miss
avodiable miss
avodiable miss
avodiable miss
avodiable miss
avodiable miss
avodiable miss
avodiable miss
avodiable miss
avodiable miss
avodiable miss
avodiable miss
avodiable miss
avodiable miss
avodiable miss
avodiable miss
avodiable miss
avodiable miss
avodiable miss
avodiable miss
avodiable miss
avodiable miss
avodiable miss
avodiable miss
avodiable miss
avodiable miss
avodiable miss
avodiable miss
avodiable miss
avodiable miss
avodiable miss
avodiable miss
avodiable miss
avodiable miss
avodiable miss
avodiable miss
avodiable miss
avodiable miss
avodiable miss
avodiable miss
avodiable miss
avodiable miss
avodiable miss
avodiable miss
avodiable miss
avodiable miss
avodiable miss
avodiable miss
avodiable miss
avodiable miss
avodiable miss
avodiable miss
avodiable miss
avodiable miss
avodiable miss
avodiable miss
avodiable miss
avodiable miss
avodiable miss
avodiable miss
avodiable miss
avodiable miss
avodiable miss
avodiable miss
avodiable miss
avodiable miss
avodiable miss
avodiable miss
avodiable miss
avodiable miss
avodiable miss
avodiable miss
avodiable miss
avodiable miss
avodiable miss
avodiable miss
avodiable miss
avodiable miss
avodiable miss
avodiable miss
avodiable miss
avodiable miss
avodiable miss
avodiable miss
avodiable miss
avodiable miss
avodiable miss
avodiable miss
avodiable miss
avodiable miss
avodiable miss
avodiable miss
avodiable miss
avodiable miss
avodiable miss
avodiable miss
avodiable miss
avodiable miss
avodiable miss
avodiable miss
avodiable miss
avodiable miss
avodiable miss
avodiable miss
avodiable miss
avodiable miss
avodiable miss
avodiable miss
avodiable miss
avodiable miss
avodiable miss
avodiable miss
avodiable miss
avodiable miss
avodiable miss
avodiable miss
avodiable miss
avodiable miss
avodiable miss
avodiable miss
avodiable miss
avoided miss
avoided miss
avoided miss
avoided miss
avoided miss
avoided miss
avoided miss
avoided miss
avodiable miss
avoided miss
avodiable miss
avoided miss
avoided miss
avoided miss
avoided miss
avoided miss
avoided miss
avoided miss
avoided miss
avodiable miss
avoided miss
avoided miss
avoided miss
avoided miss
avodiable miss
avoided miss
avoided miss
avodiable miss
avoided miss
avoided miss
avoided miss
avoided miss
avoided miss
avodiable miss
avoided miss
avoided miss
avoided miss
avoided miss
avoided miss
avoided miss
avoided miss
avoided miss
avoided miss
avoided miss
avoided miss
avoided miss
avoided miss
avoided miss
avoided miss
avoided miss
avodiable miss
avoided miss
avoided miss
avoided miss
avoided miss
avoided miss
avoided miss
avoided miss
avoided miss
avoided miss
avoided miss
avoided miss
avoided miss
avoided miss
avoided miss
avoided miss
avoided miss
avoided miss
avoided miss
avoided miss
avoided miss
avoided miss
avoided miss
avoided miss
avoided miss
avoided miss
avoided miss
avoided miss
avoided miss
avoided miss
avoided miss
avoided miss
avoided miss
avoided miss
avoided miss
avoided miss
avoided miss
avoided miss
avoided miss
update - gcp: 0, gcpfactor: 1640, compression size: 53 
avoided miss
avoided miss
avoided miss
avoided miss
avoided miss
avoided miss
avoided miss
avoided miss
avoided miss
avoided miss
avoided miss
avoided miss
avoided miss
avoided miss
avoided miss
avoided miss
avoided miss
avoided miss
avoided miss
avoided miss
avoided miss
avoided miss
avoided miss
avoided miss
avoided miss
avodiable miss
avoided miss
avoided miss
avoided miss
avoided miss
avoided miss
avoided miss
avoided miss
avoided miss
avoided miss
avoided miss
avoided miss
avoided miss
avodiable miss
avoided miss
avoided miss
avoided miss
avoided miss
avoided miss
avoided miss
avoided miss
update - gcp: 0, gcpfactor: 1686, compression size: 94 
avoided miss
avoided miss
update - gcp: 0, gcpfactor: 1688, compression size: 53 
avoided miss
avoided miss
update - gcp: 0, gcpfactor: 1690, compression size: 53 
avoided miss
avoided miss
update - gcp: 0, gcpfactor: 1692, compression size: 53 
avoided miss
avoided miss
update - gcp: 0, gcpfactor: 1694, compression size: 53 
avoided miss
avoided miss
update - gcp: 0, gcpfactor: 1696, compression size: 53 
avoided miss
avoided miss
update - gcp: 0, gcpfactor: 1698, compression size: 53 
avoided miss
avoided miss
update - gcp: 0, gcpfactor: 1700, compression size: 53 
avoided miss
penalized hit
update - gcp: 0, gcpfactor: 1700, compression size: 12 
avoided miss
avoided miss
avoided miss
avoided miss
avoided miss
avoided miss
avoided miss
avoided miss
avoided miss
update - gcp: 0, gcpfactor: 1709, compression size: 53 
avoided miss
avoided miss
update - gcp: 0, gcpfactor: 1711, compression size: 53 
avoided miss
avoided miss
update - gcp: 0, gcpfactor: 1713, compression size: 53 
avoided miss
avoided miss
update - gcp: 0, gcpfactor: 1715, compression size: 53 
avoided miss
avoided miss
update - gcp: 0, gcpfactor: 1717, compression size: 53 
avoided miss
avoided miss
update - gcp: 0, gcpfactor: 1719, compression size: 53 
avoided miss
avoided miss
update - gcp: 0, gcpfactor: 1721, compression size: 53 
avoided miss
avoided miss
update - gcp: 0, gcpfactor: 1723, compression size: 53 
avoided miss
avoided miss
update - gcp: 0, gcpfactor: 1725, compression size: 53 
avoided miss
avoided miss
update - gcp: 0, gcpfactor: 1727, compression size: 53 
avoided miss
avoided miss
update - gcp: 0, gcpfactor: 1729, compression size: 53 
avoided miss
avoided miss
update - gcp: 0, gcpfactor: 1731, compression size: 53 
avoided miss
avoided miss
update - gcp: 0, gcpfactor: 1733, compression size: 53 
avoided miss
avoided miss
update - gcp: 0, gcpfactor: 1735, compression size: 53 
avoided miss
avoided miss
update - gcp: 0, gcpfactor: 1737, compression size: 53 
avoided miss
avoided miss
update - gcp: 0, gcpfactor: 1739, compression size: 53 
avoided miss
avoided miss
update - gcp: 0, gcpfactor: 1741, compression size: 53 
avoided miss
avoided miss
update - gcp: 0, gcpfactor: 1743, compression size: 53 
avoided miss
avoided miss
update - gcp: 0, gcpfactor: 1745, compression size: 53 
avoided miss
avoided miss
update - gcp: 0, gcpfactor: 1747, compression size: 53 
avoided miss
avoided miss
update - gcp: 0, gcpfactor: 1749, compression size: 53 
avoided miss
avoided miss
update - gcp: 0, gcpfactor: 1751, compression size: 53 
avoided miss
avoided miss
update - gcp: 0, gcpfactor: 1753, compression size: 53 
avoided miss
avoided miss
update - gcp: 0, gcpfactor: 1755, compression size: 53 
avoided miss
avoided miss
update - gcp: 0, gcpfactor: 1757, compression size: 53 
avoided miss
avoided miss
update - gcp: 0, gcpfactor: 1759, compression size: 53 
avoided miss
avoided miss
update - gcp: 0, gcpfactor: 1761, compression size: 53 
avoided miss
avoided miss
update - gcp: 0, gcpfactor: 1763, compression size: 53 
avoided miss
avoided miss
update - gcp: 0, gcpfactor: 1765, compression size: 53 
avoided miss
avoided miss
update - gcp: 0, gcpfactor: 1767, compression size: 53 
avoided miss
avoided miss
update - gcp: 0, gcpfactor: 1769, compression size: 53 
avoided miss
avoided miss
update - gcp: 0, gcpfactor: 1771, compression size: 53 
avoided miss
avoided miss
update - gcp: 0, gcpfactor: 1773, compression size: 53 
avoided miss
avoided miss
update - gcp: 0, gcpfactor: 1775, compression size: 53 
avoided miss
avoided miss
update - gcp: 0, gcpfactor: 1777, compression size: 53 
avoided miss
avoided miss
update - gcp: 0, gcpfactor: 1779, compression size: 53 
avoided miss
avoided miss
update - gcp: 0, gcpfactor: 1781, compression size: 53 
avoided miss
avoided miss
update - gcp: 0, gcpfactor: 1783, compression size: 53 
avoided miss
avoided miss
update - gcp: 0, gcpfactor: 1785, compression size: 53 
avoided miss
avoided miss
update - gcp: 0, gcpfactor: 1787, compression size: 53 
avoided miss
avoided miss
update - gcp: 0, gcpfactor: 1789, compression size: 53 
avoided miss
avoided miss
update - gcp: 0, gcpfactor: 1791, compression size: 53 
avoided miss
avoided miss
update - gcp: 0, gcpfactor: 1793, compression size: 53 
avoided miss
avoided miss
update - gcp: 0, gcpfactor: 1795, compression size: 53 
avoided miss
avoided miss
update - gcp: 0, gcpfactor: 1797, compression size: 53 
avoided miss
avoided miss
update - gcp: 0, gcpfactor: 1799, compression size: 53 
avoided miss
avoided miss
update - gcp: 0, gcpfactor: 1801, compression size: 53 
avoided miss
avoided miss
update - gcp: 0, gcpfactor: 1803, compression size: 53 
avoided miss
avoided miss
update - gcp: 0, gcpfactor: 1805, compression size: 53 
avoided miss
avoided miss
update - gcp: 0, gcpfactor: 1807, compression size: 53 
avoided miss
avoided miss
update - gcp: 0, gcpfactor: 1809, compression size: 53 
avoided miss
avoided miss
update - gcp: 0, gcpfactor: 1811, compression size: 53 
avoided miss
avoided miss
update - gcp: 0, gcpfactor: 1813, compression size: 53 
avoided miss
avoided miss
update - gcp: 0, gcpfactor: 1815, compression size: 53 
avoided miss
avoided miss
update - gcp: 0, gcpfactor: 1817, compression size: 53 
avoided miss
avoided miss
update - gcp: 0, gcpfactor: 1819, compression size: 53 
avoided miss
avoided miss
update - gcp: 0, gcpfactor: 1821, compression size: 53 
avoided miss
avoided miss
update - gcp: 0, gcpfactor: 1823, compression size: 53 
avoided miss
avoided miss
update - gcp: 0, gcpfactor: 1825, compression size: 53 
avoided miss
avoided miss
update - gcp: 0, gcpfactor: 1827, compression size: 53 
avoided miss
avoided miss
update - gcp: 0, gcpfactor: 1829, compression size: 53 
avoided miss
avoided miss
update - gcp: 0, gcpfactor: 1831, compression size: 53 
avoided miss
avoided miss
update - gcp: 0, gcpfactor: 1833, compression size: 53 
avoided miss
avoided miss
update - gcp: 0, gcpfactor: 1835, compression size: 53 
avoided miss
avoided miss
update - gcp: 0, gcpfactor: 1837, compression size: 53 
avoided miss
avoided miss
update - gcp: 0, gcpfactor: 1839, compression size: 53 
avoided miss
avoided miss
update - gcp: 0, gcpfactor: 1841, compression size: 53 
avoided miss
avoided miss
update - gcp: 0, gcpfactor: 1843, compression size: 53 
avoided miss
avoided miss
update - gcp: 0, gcpfactor: 1845, compression size: 53 
avoided miss
avoided miss
update - gcp: 0, gcpfactor: 1847, compression size: 53 
avoided miss
avoided miss
update - gcp: 0, gcpfactor: 1849, compression size: 53 
avoided miss
avoided miss
update - gcp: 0, gcpfactor: 1851, compression size: 53 
avoided miss
avoided miss
update - gcp: 0, gcpfactor: 1853, compression size: 53 
avoided miss
avoided miss
update - gcp: 0, gcpfactor: 1855, compression size: 53 
avoided miss
avoided miss
update - gcp: 0, gcpfactor: 1857, compression size: 53 
avoided miss
avoided miss
update - gcp: 0, gcpfactor: 1859, compression size: 53 
avoided miss
avoided miss
update - gcp: 0, gcpfactor: 1861, compression size: 53 
avoided miss
avoided miss
update - gcp: 0, gcpfactor: 1863, compression size: 53 
avoided miss
avoided miss
update - gcp: 0, gcpfactor: 1865, compression size: 53 
avoided miss
avoided miss
update - gcp: 0, gcpfactor: 1867, compression size: 53 
avoided miss
avoided miss
update - gcp: 0, gcpfactor: 1869, compression size: 53 
avoided miss
avoided miss
update - gcp: 0, gcpfactor: 1871, compression size: 53 
avoided miss
avoided miss
update - gcp: 0, gcpfactor: 1873, compression size: 53 
avoided miss
avoided miss
update - gcp: 0, gcpfactor: 1875, compression size: 53 
avoided miss
avoided miss
update - gcp: 0, gcpfactor: 1877, compression size: 53 
avoided miss
avoided miss
update - gcp: 0, gcpfactor: 1879, compression size: 53 
avoided miss
avoided miss
update - gcp: 0, gcpfactor: 1881, compression size: 53 
avoided miss
avoided miss
update - gcp: 0, gcpfactor: 1883, compression size: 53 
avoided miss
avoided miss
update - gcp: 0, gcpfactor: 1885, compression size: 53 
avoided miss
avoided miss
update - gcp: 0, gcpfactor: 1887, compression size: 53 
avoided miss
avoided miss
update - gcp: 0, gcpfactor: 1889, compression size: 53 
avoided miss
avoided miss
update - gcp: 0, gcpfactor: 1891, compression size: 53 
avoided miss
avoided miss
update - gcp: 0, gcpfactor: 1893, compression size: 53 
avoided miss
avoided miss
update - gcp: 0, gcpfactor: 1895, compression size: 53 
avoided miss
avoided miss
update - gcp: 0, gcpfactor: 1897, compression size: 53 
avoided miss
avoided miss
update - gcp: 0, gcpfactor: 1899, compression size: 53 
avoided miss
avoided miss
update - gcp: 0, gcpfactor: 1901, compression size: 53 
avoided miss
avoided miss
update - gcp: 0, gcpfactor: 1903, compression size: 53 
avoided miss
avoided miss
update - gcp: 0, gcpfactor: 1905, compression size: 53 
avoided miss
avoided miss
update - gcp: 0, gcpfactor: 1907, compression size: 53 
avoided miss
avoided miss
update - gcp: 0, gcpfactor: 1909, compression size: 53 
avoided miss
avoided miss
update - gcp: 0, gcpfactor: 1911, compression size: 53 
avoided miss
avoided miss
update - gcp: 0, gcpfactor: 1913, compression size: 53 
avoided miss
avoided miss
update - gcp: 0, gcpfactor: 1915, compression size: 53 
avoided miss
avoided miss
update - gcp: 0, gcpfactor: 1917, compression size: 53 
avoided miss
avoided miss
update - gcp: 0, gcpfactor: 1919, compression size: 53 
avoided miss
avoided miss
update - gcp: 0, gcpfactor: 1921, compression size: 53 
avoided miss
avoided miss
update - gcp: 0, gcpfactor: 1923, compression size: 53 
avoided miss
avoided miss
update - gcp: 0, gcpfactor: 1925, compression size: 53 
avoided miss
avoided miss
update - gcp: 0, gcpfactor: 1927, compression size: 53 
avoided miss
avoided miss
update - gcp: 0, gcpfactor: 1929, compression size: 53 
avoided miss
avoided miss
update - gcp: 0, gcpfactor: 1931, compression size: 53 
avoided miss
avoided miss
update - gcp: 0, gcpfactor: 1933, compression size: 53 
avoided miss
avoided miss
update - gcp: 0, gcpfactor: 1935, compression size: 53 
avoided miss
avoided miss
update - gcp: 0, gcpfactor: 1937, compression size: 53 
avoided miss
avoided miss
update - gcp: 0, gcpfactor: 1939, compression size: 53 
avoided miss
avoided miss
update - gcp: 0, gcpfactor: 1941, compression size: 53 
avoided miss
avoided miss
update - gcp: 0, gcpfactor: 1943, compression size: 53 
avoided miss
avoided miss
update - gcp: 0, gcpfactor: 1945, compression size: 53 
avoided miss
update - gcp: 0, gcpfactor: 1946, compression size: 53 
avoided miss
avoided miss
avoided miss
update - gcp: 0, gcpfactor: 1949, compression size: 53 
avoided miss
avoided miss
update - gcp: 0, gcpfactor: 1951, compression size: 53 
avoided miss
avoided miss
update - gcp: 0, gcpfactor: 1953, compression size: 53 
avoided miss
avoided miss
update - gcp: 0, gcpfactor: 1955, compression size: 53 
avoided miss
avoided miss
update - gcp: 0, gcpfactor: 1957, compression size: 53 
avoided miss
avoided miss
update - gcp: 0, gcpfactor: 1959, compression size: 53 
avoided miss
avoided miss
update - gcp: 0, gcpfactor: 1961, compression size: 53 
avoided miss
avoided miss
update - gcp: 0, gcpfactor: 1963, compression size: 53 
avoided miss
avoided miss
update - gcp: 0, gcpfactor: 1965, compression size: 53 
avoided miss
avoided miss
update - gcp: 0, gcpfactor: 1967, compression size: 53 
avoided miss
avoided miss
update - gcp: 0, gcpfactor: 1969, compression size: 53 
avoided miss
avoided miss
update - gcp: 0, gcpfactor: 1971, compression size: 53 
avoided miss
avoided miss
update - gcp: 0, gcpfactor: 1973, compression size: 53 
avoided miss
avoided miss
update - gcp: 0, gcpfactor: 1975, compression size: 53 
avoided miss
avoided miss
update - gcp: 0, gcpfactor: 1977, compression size: 53 
avoided miss
avoided miss
update - gcp: 0, gcpfactor: 1979, compression size: 53 
avoided miss
avoided miss
update - gcp: 0, gcpfactor: 1981, compression size: 53 
avoided miss
avoided miss
update - gcp: 0, gcpfactor: 1983, compression size: 53 
avoided miss
avoided miss
update - gcp: 0, gcpfactor: 1985, compression size: 53 
avoided miss
avoided miss
update - gcp: 0, gcpfactor: 1987, compression size: 53 
avoided miss
avoided miss
update - gcp: 0, gcpfactor: 1989, compression size: 53 
avoided miss
avoided miss
update - gcp: 0, gcpfactor: 1991, compression size: 53 
avoided miss
avoided miss
update - gcp: 0, gcpfactor: 1993, compression size: 53 
avoided miss
avoided miss
update - gcp: 0, gcpfactor: 1995, compression size: 53 
avoided miss
avoided miss
update - gcp: 0, gcpfactor: 1997, compression size: 53 
avoided miss
avoided miss
update - gcp: 0, gcpfactor: 1999, compression size: 53 
avoided miss
avoided miss
update - gcp: 0, gcpfactor: 2001, compression size: 53 
avoided miss
avoided miss
update - gcp: 0, gcpfactor: 2003, compression size: 53 
avoided miss
avoided miss
update - gcp: 0, gcpfactor: 2005, compression size: 53 
avoided miss
avoided miss
update - gcp: 0, gcpfactor: 2007, compression size: 53 
avoided miss
avoided miss
update - gcp: 0, gcpfactor: 2009, compression size: 53 
avoided miss
avoided miss
update - gcp: 0, gcpfactor: 2011, compression size: 53 
avoided miss
avoided miss
update - gcp: 0, gcpfactor: 2013, compression size: 53 
avoided miss
avoided miss
update - gcp: 0, gcpfactor: 2015, compression size: 53 
avoided miss
avoided miss
update - gcp: 0, gcpfactor: 2017, compression size: 53 
avoided miss
avoided miss
update - gcp: 0, gcpfactor: 2019, compression size: 53 
avoided miss
avoided miss
update - gcp: 0, gcpfactor: 2021, compression size: 53 
avoided miss
avoided miss
update - gcp: 0, gcpfactor: 2023, compression size: 53 
avoided miss
avoided miss
update - gcp: 0, gcpfactor: 2025, compression size: 53 
avoided miss
avoided miss
update - gcp: 0, gcpfactor: 2027, compression size: 53 
avoided miss
avoided miss
update - gcp: 0, gcpfactor: 2029, compression size: 53 
avoided miss
avoided miss
update - gcp: 0, gcpfactor: 2031, compression size: 53 
avoided miss
avoided miss
update - gcp: 0, gcpfactor: 2033, compression size: 53 
avoided miss
avoided miss
update - gcp: 0, gcpfactor: 2035, compression size: 53 
avoided miss
avoided miss
update - gcp: 0, gcpfactor: 2037, compression size: 53 
avoided miss
avoided miss
update - gcp: 0, gcpfactor: 2039, compression size: 53 
avoided miss
avoided miss
update - gcp: 0, gcpfactor: 2041, compression size: 53 
avoided miss
avoided miss
update - gcp: 0, gcpfactor: 2043, compression size: 53 
avoided miss
avoided miss
update - gcp: 0, gcpfactor: 2045, compression size: 53 
avoided miss
avoided miss
update - gcp: 0, gcpfactor: 2047, compression size: 53 
avoided miss
avoided miss
update - gcp: 0, gcpfactor: 2049, compression size: 53 
avoided miss
avoided miss
update - gcp: 0, gcpfactor: 2051, compression size: 53 
avoided miss
avoided miss
update - gcp: 0, gcpfactor: 2053, compression size: 53 
avoided miss
avoided miss
update - gcp: 0, gcpfactor: 2055, compression size: 53 
avoided miss
avoided miss
update - gcp: 0, gcpfactor: 2057, compression size: 53 
avoided miss
avoided miss
update - gcp: 0, gcpfactor: 2059, compression size: 53 
avoided miss
avoided miss
update - gcp: 0, gcpfactor: 2061, compression size: 53 
avoided miss
avoided miss
update - gcp: 0, gcpfactor: 2063, compression size: 53 
avoided miss
avoided miss
update - gcp: 0, gcpfactor: 2065, compression size: 53 
avoided miss
avoided miss
update - gcp: 0, gcpfactor: 2067, compression size: 53 
avoided miss
avoided miss
update - gcp: 0, gcpfactor: 2069, compression size: 53 
avoided miss
avoided miss
update - gcp: 0, gcpfactor: 2071, compression size: 53 
avoided miss
avoided miss
update - gcp: 0, gcpfactor: 2073, compression size: 53 
avoided miss
avoided miss
update - gcp: 0, gcpfactor: 2075, compression size: 53 
avoided miss
avoided miss
update - gcp: 0, gcpfactor: 2077, compression size: 53 
avoided miss
avoided miss
update - gcp: 0, gcpfactor: 2079, compression size: 53 
avoided miss
avoided miss
update - gcp: 0, gcpfactor: 2081, compression size: 53 
avoided miss
avoided miss
update - gcp: 0, gcpfactor: 2083, compression size: 53 
avoided miss
avoided miss
update - gcp: 0, gcpfactor: 2085, compression size: 53 
avoided miss
avoided miss
update - gcp: 0, gcpfactor: 2087, compression size: 53 
avoided miss
avoided miss
update - gcp: 0, gcpfactor: 2089, compression size: 53 
avoided miss
avoided miss
update - gcp: 0, gcpfactor: 2091, compression size: 53 
avoided miss
avoided miss
update - gcp: 0, gcpfactor: 2093, compression size: 53 
avoided miss
avoided miss
update - gcp: 0, gcpfactor: 2095, compression size: 53 
avoided miss
avoided miss
update - gcp: 0, gcpfactor: 2097, compression size: 53 
avoided miss
avoided miss
update - gcp: 0, gcpfactor: 2099, compression size: 53 
avoided miss
avoided miss
update - gcp: 0, gcpfactor: 2101, compression size: 72 
avoided miss
avoided miss
update - gcp: 0, gcpfactor: 2103, compression size: 53 
avoided miss
avoided miss
update - gcp: 0, gcpfactor: 2105, compression size: 53 
avoided miss
avoided miss
update - gcp: 0, gcpfactor: 2107, compression size: 53 
avoided miss
avoided miss
update - gcp: 0, gcpfactor: 2109, compression size: 53 
avoided miss
avoided miss
update - gcp: 0, gcpfactor: 2111, compression size: 53 
avoided miss
avoided miss
update - gcp: 0, gcpfactor: 2113, compression size: 53 
avoided miss
avoided miss
update - gcp: 0, gcpfactor: 2115, compression size: 53 
avoided miss
avoided miss
update - gcp: 0, gcpfactor: 2117, compression size: 53 
avoided miss
avoided miss
update - gcp: 0, gcpfactor: 2119, compression size: 53 
avoided miss
avoided miss
update - gcp: 0, gcpfactor: 2121, compression size: 53 
avoided miss
avoided miss
update - gcp: 0, gcpfactor: 2123, compression size: 53 
avoided miss
avoided miss
update - gcp: 0, gcpfactor: 2125, compression size: 53 
avoided miss
avoided miss
update - gcp: 0, gcpfactor: 2127, compression size: 53 
avoided miss
avoided miss
update - gcp: 0, gcpfactor: 2129, compression size: 53 
avoided miss
avoided miss
update - gcp: 0, gcpfactor: 2131, compression size: 53 
avoided miss
avoided miss
update - gcp: 0, gcpfactor: 2133, compression size: 53 
avoided miss
avoided miss
update - gcp: 0, gcpfactor: 2135, compression size: 53 
avoided miss
avoided miss
update - gcp: 0, gcpfactor: 2137, compression size: 53 
avoided miss
avoided miss
update - gcp: 0, gcpfactor: 2139, compression size: 53 
avoided miss
avoided miss
update - gcp: 0, gcpfactor: 2141, compression size: 53 
avoided miss
avoided miss
update - gcp: 0, gcpfactor: 2143, compression size: 53 
avoided miss
avoided miss
update - gcp: 0, gcpfactor: 2145, compression size: 53 
avoided miss
avoided miss
update - gcp: 0, gcpfactor: 2147, compression size: 53 
avoided miss
avoided miss
update - gcp: 0, gcpfactor: 2149, compression size: 53 
avoided miss
avoided miss
update - gcp: 0, gcpfactor: 2151, compression size: 53 
avoided miss
avoided miss
update - gcp: 0, gcpfactor: 2153, compression size: 53 
avoided miss
avoided miss
update - gcp: 0, gcpfactor: 2155, compression size: 53 
avoided miss
avoided miss
update - gcp: 0, gcpfactor: 2157, compression size: 53 
avoided miss
avoided miss
update - gcp: 0, gcpfactor: 2159, compression size: 53 
avoided miss
avoided miss
update - gcp: 0, gcpfactor: 2161, compression size: 53 
avoided miss
avoided miss
update - gcp: 0, gcpfactor: 2163, compression size: 53 
avoided miss
avoided miss
update - gcp: 0, gcpfactor: 2165, compression size: 53 
avoided miss
avoided miss
update - gcp: 0, gcpfactor: 2167, compression size: 53 
avoided miss
avoided miss
update - gcp: 0, gcpfactor: 2169, compression size: 53 
avoided miss
avoided miss
update - gcp: 0, gcpfactor: 2171, compression size: 53 
avoided miss
avoided miss
update - gcp: 0, gcpfactor: 2173, compression size: 53 
avoided miss
avoided miss
update - gcp: 0, gcpfactor: 2175, compression size: 53 
avoided miss
avoided miss
update - gcp: 0, gcpfactor: 2177, compression size: 53 
avoided miss
avoided miss
update - gcp: 0, gcpfactor: 2179, compression size: 53 
avoided miss
avoided miss
update - gcp: 0, gcpfactor: 2181, compression size: 53 
avoided miss
avoided miss
update - gcp: 0, gcpfactor: 2183, compression size: 53 
avoided miss
avoided miss
update - gcp: 0, gcpfactor: 2185, compression size: 53 
avoided miss
avoided miss
update - gcp: 0, gcpfactor: 2187, compression size: 53 
avoided miss
avoided miss
update - gcp: 0, gcpfactor: 2189, compression size: 72 
avoided miss
avoided miss
update - gcp: 0, gcpfactor: 2191, compression size: 72 
avoided miss
avoided miss
update - gcp: 0, gcpfactor: 2193, compression size: 72 
avoided miss
avoided miss
update - gcp: 0, gcpfactor: 2195, compression size: 72 
avoided miss
avoided miss
update - gcp: 0, gcpfactor: 2197, compression size: 72 
avoided miss
avoided miss
update - gcp: 0, gcpfactor: 2199, compression size: 72 
avoided miss
avoided miss
update - gcp: 0, gcpfactor: 2201, compression size: 72 
avoided miss
avoided miss
update - gcp: 0, gcpfactor: 2203, compression size: 53 
avoided miss
avoided miss
update - gcp: 0, gcpfactor: 2205, compression size: 53 
avoided miss
avoided miss
update - gcp: 0, gcpfactor: 2207, compression size: 53 
avoided miss
avoided miss
update - gcp: 0, gcpfactor: 2209, compression size: 53 
avoided miss
avoided miss
update - gcp: 0, gcpfactor: 2211, compression size: 53 
avoided miss
avoided miss
update - gcp: 0, gcpfactor: 2213, compression size: 53 
avoided miss
avoided miss
update - gcp: 0, gcpfactor: 2215, compression size: 53 
avoided miss
avoided miss
update - gcp: 0, gcpfactor: 2217, compression size: 53 
avoided miss
avoided miss
update - gcp: 0, gcpfactor: 2219, compression size: 72 
avoided miss
avoided miss
update - gcp: 0, gcpfactor: 2221, compression size: 72 
avoided miss
avoided miss
update - gcp: 0, gcpfactor: 2223, compression size: 72 
avoided miss
avoided miss
update - gcp: 0, gcpfactor: 2225, compression size: 72 
avoided miss
avoided miss
update - gcp: 0, gcpfactor: 2227, compression size: 72 
avoided miss
avoided miss
update - gcp: 0, gcpfactor: 2229, compression size: 72 
avoided miss
avoided miss
update - gcp: 0, gcpfactor: 2231, compression size: 72 
avoided miss
avoided miss
update - gcp: 0, gcpfactor: 2233, compression size: 72 
avoided miss
avoided miss
update - gcp: 0, gcpfactor: 2235, compression size: 72 
avoided miss
avoided miss
update - gcp: 0, gcpfactor: 2237, compression size: 72 
avoided miss
avoided miss
update - gcp: 0, gcpfactor: 2239, compression size: 72 
avoided miss
avoided miss
update - gcp: 0, gcpfactor: 2241, compression size: 72 
avoided miss
avoided miss
update - gcp: 0, gcpfactor: 2243, compression size: 72 
avoided miss
avoided miss
update - gcp: 0, gcpfactor: 2245, compression size: 72 
avoided miss
avoided miss
update - gcp: 0, gcpfactor: 2247, compression size: 72 
avoided miss
avoided miss
update - gcp: 0, gcpfactor: 2249, compression size: 72 
avoided miss
avoided miss
update - gcp: 0, gcpfactor: 2251, compression size: 72 
avoided miss
avoided miss
update - gcp: 0, gcpfactor: 2253, compression size: 72 
avoided miss
avoided miss
update - gcp: 0, gcpfactor: 2255, compression size: 72 
avoided miss
avoided miss
update - gcp: 0, gcpfactor: 2257, compression size: 72 
avoided miss
avoided miss
update - gcp: 0, gcpfactor: 2259, compression size: 72 
avoided miss
avoided miss
update - gcp: 0, gcpfactor: 2261, compression size: 72 
avoided miss
avoided miss
update - gcp: 0, gcpfactor: 2263, compression size: 72 
avoided miss
avoided miss
update - gcp: 0, gcpfactor: 2265, compression size: 72 
avoided miss
avoided miss
update - gcp: 0, gcpfactor: 2267, compression size: 72 
avoided miss
avoided miss
update - gcp: 0, gcpfactor: 2269, compression size: 72 
avoided miss
avoided miss
update - gcp: 0, gcpfactor: 2271, compression size: 72 
avoided miss
avoided miss
update - gcp: 0, gcpfactor: 2273, compression size: 72 
avoided miss
avoided miss
update - gcp: 0, gcpfactor: 2275, compression size: 72 
avoided miss
avoided miss
update - gcp: 0, gcpfactor: 2277, compression size: 72 
avoided miss
avoided miss
update - gcp: 0, gcpfactor: 2279, compression size: 72 
avoided miss
avoided miss
update - gcp: 0, gcpfactor: 2281, compression size: 72 
avoided miss
avoided miss
update - gcp: 0, gcpfactor: 2283, compression size: 72 
avoided miss
avoided miss
update - gcp: 0, gcpfactor: 2285, compression size: 72 
avoided miss
avoided miss
update - gcp: 0, gcpfactor: 2287, compression size: 72 
avoided miss
avoided miss
update - gcp: 0, gcpfactor: 2289, compression size: 72 
avoided miss
avoided miss
update - gcp: 0, gcpfactor: 2291, compression size: 72 
avoided miss
avoided miss
update - gcp: 0, gcpfactor: 2293, compression size: 72 
avoided miss
avoided miss
update - gcp: 0, gcpfactor: 2295, compression size: 72 
avoided miss
avoided miss
update - gcp: 0, gcpfactor: 2297, compression size: 72 
avoided miss
avoided miss
update - gcp: 0, gcpfactor: 2299, compression size: 72 
avoided miss
avoided miss
update - gcp: 0, gcpfactor: 2301, compression size: 72 
avoided miss
avoided miss
update - gcp: 0, gcpfactor: 2303, compression size: 72 
avoided miss
avoided miss
update - gcp: 0, gcpfactor: 2305, compression size: 72 
avoided miss
avoided miss
update - gcp: 0, gcpfactor: 2307, compression size: 72 
avoided miss
avoided miss
update - gcp: 0, gcpfactor: 2309, compression size: 72 
avoided miss
avoided miss
update - gcp: 0, gcpfactor: 2311, compression size: 72 
avoided miss
avoided miss
update - gcp: 0, gcpfactor: 2313, compression size: 72 
avoided miss
avoided miss
update - gcp: 0, gcpfactor: 2315, compression size: 72 
avoided miss
avoided miss
update - gcp: 0, gcpfactor: 2317, compression size: 72 
avoided miss
avoided miss
update - gcp: 0, gcpfactor: 2319, compression size: 72 
avoided miss
avoided miss
update - gcp: 0, gcpfactor: 2321, compression size: 72 
avoided miss
avoided miss
update - gcp: 0, gcpfactor: 2323, compression size: 72 
avoided miss
avoided miss
update - gcp: 0, gcpfactor: 2325, compression size: 72 
avoided miss
avoided miss
update - gcp: 0, gcpfactor: 2327, compression size: 72 
avoided miss
avoided miss
update - gcp: 0, gcpfactor: 2329, compression size: 72 
avoided miss
avoided miss
update - gcp: 0, gcpfactor: 2331, compression size: 72 
avoided miss
avoided miss
update - gcp: 0, gcpfactor: 2333, compression size: 72 
avoided miss
avoided miss
update - gcp: 0, gcpfactor: 2335, compression size: 72 
avoided miss
avoided miss
update - gcp: 0, gcpfactor: 2337, compression size: 72 
avoided miss
avoided miss
update - gcp: 0, gcpfactor: 2339, compression size: 72 
avoided miss
avoided miss
update - gcp: 0, gcpfactor: 2341, compression size: 72 
avoided miss
avoided miss
update - gcp: 0, gcpfactor: 2343, compression size: 72 
avoided miss
avoided miss
update - gcp: 0, gcpfactor: 2345, compression size: 72 
avoided miss
avoided miss
update - gcp: 0, gcpfactor: 2347, compression size: 72 
avoided miss
avoided miss
update - gcp: 0, gcpfactor: 2349, compression size: 72 
avoided miss
avoided miss
update - gcp: 0, gcpfactor: 2351, compression size: 72 
avoided miss
avoided miss
update - gcp: 0, gcpfactor: 2353, compression size: 72 
avoided miss
avoided miss
update - gcp: 0, gcpfactor: 2355, compression size: 72 
avoided miss
avoided miss
update - gcp: 0, gcpfactor: 2357, compression size: 72 
avoided miss
avoided miss
update - gcp: 0, gcpfactor: 2359, compression size: 72 
avoided miss
avoided miss
update - gcp: 0, gcpfactor: 2361, compression size: 72 
avoided miss
avoided miss
update - gcp: 0, gcpfactor: 2363, compression size: 72 
avoided miss
avoided miss
update - gcp: 0, gcpfactor: 2365, compression size: 72 
avoided miss
avoided miss
update - gcp: 0, gcpfactor: 2367, compression size: 72 
avoided miss
avoided miss
update - gcp: 0, gcpfactor: 2369, compression size: 72 
avoided miss
avoided miss
update - gcp: 0, gcpfactor: 2371, compression size: 72 
avoided miss
avoided miss
update - gcp: 0, gcpfactor: 2373, compression size: 72 
avoided miss
avoided miss
update - gcp: 0, gcpfactor: 2375, compression size: 72 
avoided miss
avoided miss
update - gcp: 0, gcpfactor: 2377, compression size: 72 
avoided miss
avoided miss
update - gcp: 0, gcpfactor: 2379, compression size: 72 
avoided miss
avoided miss
update - gcp: 0, gcpfactor: 2381, compression size: 72 
avoided miss
avoided miss
update - gcp: 0, gcpfactor: 2383, compression size: 72 
avoided miss
avoided miss
update - gcp: 0, gcpfactor: 2385, compression size: 72 
avoided miss
avoided miss
update - gcp: 0, gcpfactor: 2387, compression size: 72 
avoided miss
avoided miss
update - gcp: 0, gcpfactor: 2389, compression size: 72 
avoided miss
avoided miss
update - gcp: 0, gcpfactor: 2391, compression size: 72 
avoided miss
avoided miss
update - gcp: 0, gcpfactor: 2393, compression size: 72 
avoided miss
avoided miss
update - gcp: 0, gcpfactor: 2395, compression size: 72 
avoided miss
avoided miss
update - gcp: 0, gcpfactor: 2397, compression size: 72 
avoided miss
avoided miss
update - gcp: 0, gcpfactor: 2399, compression size: 72 
avoided miss
avoided miss
update - gcp: 0, gcpfactor: 2401, compression size: 72 
avoided miss
avoided miss
update - gcp: 0, gcpfactor: 2403, compression size: 72 
avoided miss
avoided miss
update - gcp: 0, gcpfactor: 2405, compression size: 72 
avoided miss
avoided miss
update - gcp: 0, gcpfactor: 2407, compression size: 72 
avoided miss
avoided miss
update - gcp: 0, gcpfactor: 2409, compression size: 72 
avoided miss
avoided miss
update - gcp: 0, gcpfactor: 2411, compression size: 72 
avoided miss
avoided miss
update - gcp: 0, gcpfactor: 2413, compression size: 72 
avoided miss
avoided miss
update - gcp: 0, gcpfactor: 2415, compression size: 72 
avoided miss
avoided miss
update - gcp: 0, gcpfactor: 2417, compression size: 72 
avoided miss
avoided miss
update - gcp: 0, gcpfactor: 2419, compression size: 72 
avoided miss
avoided miss
update - gcp: 0, gcpfactor: 2421, compression size: 72 
avoided miss
avoided miss
update - gcp: 0, gcpfactor: 2423, compression size: 72 
avoided miss
avoided miss
update - gcp: 0, gcpfactor: 2425, compression size: 72 
avoided miss
avoided miss
update - gcp: 0, gcpfactor: 2427, compression size: 72 
avoided miss
avoided miss
update - gcp: 0, gcpfactor: 2429, compression size: 72 
avoided miss
avoided miss
update - gcp: 0, gcpfactor: 2431, compression size: 72 
avoided miss
avoided miss
update - gcp: 0, gcpfactor: 2433, compression size: 72 
avoided miss
avoided miss
update - gcp: 0, gcpfactor: 2435, compression size: 72 
avoided miss
avoided miss
update - gcp: 0, gcpfactor: 2437, compression size: 72 
avoided miss
avoided miss
update - gcp: 0, gcpfactor: 2439, compression size: 72 
avoided miss
avoided miss
update - gcp: 0, gcpfactor: 2441, compression size: 72 
avoided miss
avoided miss
update - gcp: 0, gcpfactor: 2443, compression size: 72 
avoided miss
avoided miss
update - gcp: 0, gcpfactor: 2445, compression size: 72 
avoided miss
avoided miss
update - gcp: 0, gcpfactor: 2447, compression size: 72 
avoided miss
avoided miss
update - gcp: 0, gcpfactor: 2449, compression size: 72 
avoided miss
avoided miss
update - gcp: 0, gcpfactor: 2451, compression size: 72 
avoided miss
avoided miss
update - gcp: 0, gcpfactor: 2453, compression size: 72 
avoided miss
avoided miss
update - gcp: 0, gcpfactor: 2455, compression size: 72 
penalized hit
avoided miss
update - gcp: 0, gcpfactor: 2455, compression size: 72 
avoided miss
avoided miss
update - gcp: 0, gcpfactor: 2457, compression size: 72 
avoided miss
update - gcp: 0, gcpfactor: 2458, compression size: 72 
avoided miss
avoided miss
avoided miss
avoided miss
avoided miss
avoided miss
avoided miss
avoided miss
avoided miss
update - gcp: 0, gcpfactor: 2467, compression size: 72 
avoided miss
avoided miss
avoided miss
avoided miss
avoided miss
avoided miss
avoided miss
avodiable miss
avodiable miss
penalized hit
update - gcp: 0, gcpfactor: 2475, compression size: 512 
update - gcp: 0, gcpfactor: 2475, compression size: 512 
avoided miss
avoided miss
penalized hit
avoided miss
update - gcp: 0, gcpfactor: 2477, compression size: 72 
avodiable miss
avoided miss
avodiable miss
avoided miss
avoided miss
avodiable miss
avoided miss
penalized hit
avoided miss
avoided miss
avoided miss
avoided miss
update - gcp: 0, gcpfactor: 2487, compression size: 72 
avoided miss
update - gcp: 0, gcpfactor: 2488, compression size: 512 
avoided miss
update - gcp: 0, gcpfactor: 2489, compression size: 512 
update - gcp: 0, gcpfactor: 2489, compression size: 512 
penalized hit
penalized hit
avoided miss
avodiable miss
update - gcp: 0, gcpfactor: 2489, compression size: 512 
avoided miss
avoided miss
avoided miss
avoided miss
avoided miss
avoided miss
avoided miss
avodiable miss
avoided miss
avoided miss
update - gcp: 0, gcpfactor: 2499, compression size: 72 
avoided miss
avoided miss
avoided miss
avoided miss
update - gcp: 0, gcpfactor: 2503, compression size: 72 
avoided miss
avoided miss
avodiable miss
avodiable miss
avoided miss
avoided miss
avodiable miss
avoided miss
avoided miss
update - gcp: 0, gcpfactor: 2512, compression size: 72 
avoided miss
avodiable miss
avodiable miss
avoided miss
avoided miss
avodiable miss
avoided miss
avoided miss
avodiable miss
avoided miss
avodiable miss
avoided miss
avodiable miss
avoided miss
avoided miss
update - gcp: 0, gcpfactor: 2527, compression size: 72 
avoided miss
avodiable miss
avodiable miss
avoided miss
avoided miss
avoided miss
update - gcp: 0, gcpfactor: 2533, compression size: 72 
avoided miss
avoided miss
avodiable miss
avodiable miss
avoided miss
avodiable miss
avoided miss
avodiable miss
avoided miss
avoided miss
update - gcp: 0, gcpfactor: 2543, compression size: 72 
avoided miss
avodiable miss
avodiable miss
avoided miss
avodiable miss
avoided miss
avodiable miss
avoided miss
avodiable miss
avoided miss
avodiable miss
avodiable miss
avoided miss
avodiable miss
avoided miss
avodiable miss
avoided miss
avoided miss
update - gcp: 0, gcpfactor: 2561, compression size: 72 
avoided miss
avodiable miss
avodiable miss
avoided miss
avoided miss
avodiable miss
avoided miss
update - gcp: 0, gcpfactor: 2568, compression size: 72 
avoided miss
avoided miss
avodiable miss
avoided miss
avoided miss
avoided miss
avoided miss
update - gcp: 0, gcpfactor: 2575, compression size: 72 
avoided miss
avodiable miss
avoided miss
avoided miss
avoided miss
avoided miss
avodiable miss
avoided miss
avoided miss
avoided miss
update - gcp: 0, gcpfactor: 2585, compression size: 12 
avoided miss
avoided miss
update - gcp: 0, gcpfactor: 2587, compression size: 72 
avoided miss
avodiable miss
avoided miss
avoided miss
avoided miss
update - gcp: 0, gcpfactor: 2592, compression size: 72 
avoided miss
avoided miss
avodiable miss
avoided miss
avoided miss
avoided miss
avoided miss
update - gcp: 0, gcpfactor: 2599, compression size: 72 
avoided miss
avodiable miss
avoided miss
avoided miss
avoided miss
avoided miss
avodiable miss
avoided miss
avoided miss
avoided miss
avoided miss
update - gcp: 0, gcpfactor: 2610, compression size: 72 
avoided miss
avodiable miss
avoided miss
avoided miss
avoided miss
update - gcp: 0, gcpfactor: 2615, compression size: 72 
avoided miss
avoided miss
avodiable miss
avoided miss
avoided miss
avodiable miss
avoided miss
avoided miss
update - gcp: 0, gcpfactor: 2623, compression size: 72 
avoided miss
avodiable miss
avoided miss
avoided miss
avodiable miss
avoided miss
avoided miss
avodiable miss
avodiable miss
avoided miss
avoided miss
avodiable miss
avoided miss
avoided miss
update - gcp: 0, gcpfactor: 2637, compression size: 72 
avoided miss
avodiable miss
avodiable miss
avoided miss
avoided miss
avoided miss
update - gcp: 0, gcpfactor: 2643, compression size: 72 
avoided miss
avoided miss
avodiable miss
avoided miss
avoided miss
avoided miss
avoided miss
update - gcp: 0, gcpfactor: 2650, compression size: 72 
avoided miss
avodiable miss
avoided miss
avodiable miss
avoided miss
avodiable miss
avoided miss
avoided miss
avodiable miss
avoided miss
avoided miss
avoided miss
avoided miss
update - gcp: 0, gcpfactor: 2663, compression size: 72 
avoided miss
avodiable miss
avoided miss
avoided miss
avoided miss
update - gcp: 0, gcpfactor: 2668, compression size: 72 
avoided miss
avoided miss
avodiable miss
avoided miss
avoided miss
avoided miss
avoided miss
update - gcp: 0, gcpfactor: 2675, compression size: 72 
avoided miss
avodiable miss
avoided miss
avoided miss
avoided miss
avoided miss
avodiable miss
avoided miss
avoided miss
avoided miss
avoided miss
update - gcp: 0, gcpfactor: 2686, compression size: 72 
avoided miss
avodiable miss
avoided miss
avoided miss
avoided miss
update - gcp: 0, gcpfactor: 2691, compression size: 72 
avoided miss
avoided miss
avoided miss
avodiable miss
avoided miss
avoided miss
avoided miss
update - gcp: 0, gcpfactor: 2698, compression size: 72 
avoided miss
avodiable miss
avodiable miss
avoided miss
avodiable miss
avoided miss
avodiable miss
avoided miss
avodiable miss
avoided miss
avodiable miss
avodiable miss
avoided miss
avoided miss
avoided miss
avoided miss
[...]
update - gcp: 0, gcpfactor: 20711, compression size: 512 
update - gcp: 0, gcpfactor: 20711, compression size: 512 
update - gcp: 0, gcpfactor: 20711, compression size: 512 
update - gcp: 0, gcpfactor: 20711, compression size: 512 
update - gcp: 0, gcpfactor: 20711, compression size: 512 
update - gcp: 0, gcpfactor: 20711, compression size: 512 
update - gcp: 0, gcpfactor: 20711, compression size: 512 
update - gcp: 0, gcpfactor: 20711, compression size: 512 
update - gcp: 0, gcpfactor: 20711, compression size: 512 
update - gcp: 0, gcpfactor: 20711, compression size: 512 
update - gcp: 0, gcpfactor: 20711, compression size: 512 
update - gcp: 0, gcpfactor: 20711, compression size: 512 
update - gcp: 0, gcpfactor: 20711, compression size: 512 
update - gcp: 0, gcpfactor: 20711, compression size: 512 
update - gcp: 0, gcpfactor: 20711, compression size: 512 
update - gcp: 0, gcpfactor: 20711, compression size: 512 
update - gcp: 0, gcpfactor: 20711, compression size: 512 
update - gcp: 0, gcpfactor: 20711, compression size: 512 
update - gcp: 0, gcpfactor: 20711, compression size: 512 
update - gcp: 0, gcpfactor: 20711, compression size: 512 
update - gcp: 0, gcpfactor: 20711, compression size: 512 
update - gcp: 0, gcpfactor: 20711, compression size: 512 
update - gcp: 0, gcpfactor: 20711, compression size: 512 
update - gcp: 0, gcpfactor: 20711, compression size: 512 
update - gcp: 0, gcpfactor: 20711, compression size: 512 
update - gcp: 0, gcpfactor: 20711, compression size: 512 
update - gcp: 0, gcpfactor: 20711, compression size: 512 
update - gcp: 0, gcpfactor: 20711, compression size: 512 
update - gcp: 0, gcpfactor: 20711, compression size: 512 
update - gcp: 0, gcpfactor: 20711, compression size: 512 
update - gcp: 0, gcpfactor: 20711, compression size: 512 
update - gcp: 0, gcpfactor: 20711, compression size: 512 
update - gcp: 0, gcpfactor: 20711, compression size: 512 
update - gcp: 0, gcpfactor: 20711, compression size: 512 
update - gcp: 0, gcpfactor: 20711, compression size: 512 
update - gcp: 0, gcpfactor: 20711, compression size: 512 
update - gcp: 0, gcpfactor: 20711, compression size: 512 
update - gcp: 0, gcpfactor: 20711, compression size: 512 
update - gcp: 0, gcpfactor: 20711, compression size: 512 
update - gcp: 0, gcpfactor: 20711, compression size: 512 
update - gcp: 0, gcpfactor: 20711, compression size: 512 
update - gcp: 0, gcpfactor: 20711, compression size: 512 
update - gcp: 0, gcpfactor: 20711, compression size: 512 
update - gcp: 0, gcpfactor: 20711, compression size: 512 
update - gcp: 0, gcpfactor: 20711, compression size: 512 
update - gcp: 0, gcpfactor: 20711, compression size: 512 
update - gcp: 0, gcpfactor: 20711, compression size: 512 
update - gcp: 0, gcpfactor: 20711, compression size: 512 
update - gcp: 0, gcpfactor: 20711, compression size: 512 
update - gcp: 0, gcpfactor: 20711, compression size: 512 
update - gcp: 0, gcpfactor: 20711, compression size: 512 
update - gcp: 0, gcpfactor: 20711, compression size: 512 
update - gcp: 0, gcpfactor: 20711, compression size: 512 
update - gcp: 0, gcpfactor: 20711, compression size: 512 
update - gcp: 0, gcpfactor: 20711, compression size: 512 
update - gcp: 0, gcpfactor: 20711, compression size: 512 
update - gcp: 0, gcpfactor: 20711, compression size: 512 
update - gcp: 0, gcpfactor: 20711, compression size: 512 
update - gcp: 0, gcpfactor: 20711, compression size: 512 
update - gcp: 0, gcpfactor: 20711, compression size: 512 
update - gcp: 0, gcpfactor: 20711, compression size: 512 
update - gcp: 0, gcpfactor: 20711, compression size: 512 
update - gcp: 0, gcpfactor: 20711, compression size: 512 
penalized hit
penalized hit
update - gcp: 0, gcpfactor: 20709, compression size: 512 
update - gcp: 0, gcpfactor: 20709, compression size: 512 
update - gcp: 0, gcpfactor: 20709, compression size: 512 
update - gcp: 0, gcpfactor: 20709, compression size: 512 
update - gcp: 0, gcpfactor: 20709, compression size: 512 
update - gcp: 0, gcpfactor: 20709, compression size: 512 
update - gcp: 0, gcpfactor: 20709, compression size: 512 
update - gcp: 0, gcpfactor: 20709, compression size: 512 
update - gcp: 0, gcpfactor: 20709, compression size: 512 
update - gcp: 0, gcpfactor: 20709, compression size: 512 
update - gcp: 0, gcpfactor: 20709, compression size: 512 
penalized hit
update - gcp: 0, gcpfactor: 20708, compression size: 512 
update - gcp: 0, gcpfactor: 20708, compression size: 512 
update - gcp: 0, gcpfactor: 20708, compression size: 512 
update - gcp: 0, gcpfactor: 20708, compression size: 512 
update - gcp: 0, gcpfactor: 20708, compression size: 512 
update - gcp: 0, gcpfactor: 20708, compression size: 512 
update - gcp: 0, gcpfactor: 20708, compression size: 512 
update - gcp: 0, gcpfactor: 20708, compression size: 512 
update - gcp: 0, gcpfactor: 20708, compression size: 512 
update - gcp: 0, gcpfactor: 20708, compression size: 512 
update - gcp: 0, gcpfactor: 20708, compression size: 512 
update - gcp: 0, gcpfactor: 20708, compression size: 512 
update - gcp: 0, gcpfactor: 20708, compression size: 512 
update - gcp: 0, gcpfactor: 20708, compression size: 512 
update - gcp: 0, gcpfactor: 20708, compression size: 512 
update - gcp: 0, gcpfactor: 20708, compression size: 512 
update - gcp: 0, gcpfactor: 20708, compression size: 512 
update - gcp: 0, gcpfactor: 20708, compression size: 512 
update - gcp: 0, gcpfactor: 20708, compression size: 512 
update - gcp: 0, gcpfactor: 20708, compression size: 512 
update - gcp: 0, gcpfactor: 20708, compression size: 512 
update - gcp: 0, gcpfactor: 20708, compression size: 512 
update - gcp: 0, gcpfactor: 20708, compression size: 512 
update - gcp: 0, gcpfactor: 20708, compression size: 512 
update - gcp: 0, gcpfactor: 20708, compression size: 512 
update - gcp: 0, gcpfactor: 20708, compression size: 512 
update - gcp: 0, gcpfactor: 20708, compression size: 512 
update - gcp: 0, gcpfactor: 20708, compression size: 512 
update - gcp: 0, gcpfactor: 20708, compression size: 512 
update - gcp: 0, gcpfactor: 20708, compression size: 512 
update - gcp: 0, gcpfactor: 20708, compression size: 512 
update - gcp: 0, gcpfactor: 20708, compression size: 512 
update - gcp: 0, gcpfactor: 20708, compression size: 512 
update - gcp: 0, gcpfactor: 20708, compression size: 512 
update - gcp: 0, gcpfactor: 20708, compression size: 512 
penalized hit
avoided miss
penalized hit
penalized hit
avoided miss
update - gcp: 0, gcpfactor: 20707, compression size: 512 
update - gcp: 0, gcpfactor: 20707, compression size: 512 
update - gcp: 0, gcpfactor: 20707, compression size: 512 
update - gcp: 0, gcpfactor: 20707, compression size: 512 
update - gcp: 0, gcpfactor: 20707, compression size: 512 
update - gcp: 0, gcpfactor: 20707, compression size: 512 
update - gcp: 0, gcpfactor: 20707, compression size: 512 
update - gcp: 0, gcpfactor: 20707, compression size: 512 
update - gcp: 0, gcpfactor: 20707, compression size: 512 
update - gcp: 0, gcpfactor: 20707, compression size: 512 
update - gcp: 0, gcpfactor: 20707, compression size: 512 
penalized hit
penalized hit
update - gcp: 0, gcpfactor: 20705, compression size: 240 
update - gcp: 0, gcpfactor: 20705, compression size: 512 
update - gcp: 0, gcpfactor: 20705, compression size: 512 
penalized hit
penalized hit
update - gcp: 0, gcpfactor: 20703, compression size: 512 
update - gcp: 0, gcpfactor: 20703, compression size: 512 
update - gcp: 0, gcpfactor: 20703, compression size: 512 
avoided miss
penalized hit
update - gcp: 0, gcpfactor: 20703, compression size: 240 
update - gcp: 0, gcpfactor: 20703, compression size: 512 
update - gcp: 0, gcpfactor: 20703, compression size: 512 
update - gcp: 0, gcpfactor: 20703, compression size: 512 
update - gcp: 0, gcpfactor: 20703, compression size: 512 
update - gcp: 0, gcpfactor: 20703, compression size: 512 
update - gcp: 0, gcpfactor: 20703, compression size: 512 
update - gcp: 0, gcpfactor: 20703, compression size: 512 
update - gcp: 0, gcpfactor: 20703, compression size: 512 
update - gcp: 0, gcpfactor: 20703, compression size: 512 
update - gcp: 0, gcpfactor: 20703, compression size: 512 
update - gcp: 0, gcpfactor: 20703, compression size: 512 
update - gcp: 0, gcpfactor: 20703, compression size: 512 
update - gcp: 0, gcpfactor: 20703, compression size: 512 
update - gcp: 0, gcpfactor: 20703, compression size: 512 
penalized hit
update - gcp: 0, gcpfactor: 20702, compression size: 512 
update - gcp: 0, gcpfactor: 20702, compression size: 512 
update - gcp: 0, gcpfactor: 20702, compression size: 512 
update - gcp: 0, gcpfactor: 20702, compression size: 512 
penalized hit
penalized hit
update - gcp: 0, gcpfactor: 20700, compression size: 512 
update - gcp: 0, gcpfactor: 20700, compression size: 512 
update - gcp: 0, gcpfactor: 20700, compression size: 512 
update - gcp: 0, gcpfactor: 20700, compression size: 512 
update - gcp: 0, gcpfactor: 20700, compression size: 512 
update - gcp: 0, gcpfactor: 20700, compression size: 512 
update - gcp: 0, gcpfactor: 20700, compression size: 512 
update - gcp: 0, gcpfactor: 20700, compression size: 512 
update - gcp: 0, gcpfactor: 20700, compression size: 512 
update - gcp: 0, gcpfactor: 20700, compression size: 512 
update - gcp: 0, gcpfactor: 20700, compression size: 512 
update - gcp: 0, gcpfactor: 20700, compression size: 512 
update - gcp: 0, gcpfactor: 20700, compression size: 512 
update - gcp: 0, gcpfactor: 20700, compression size: 512 
penalized hit
avoided miss
update - gcp: 0, gcpfactor: 20700, compression size: 176 
penalized hit
update - gcp: 0, gcpfactor: 20699, compression size: 240 
avodiable miss
penalized hit
update - gcp: 0, gcpfactor: 20699, compression size: 240 
penalized hit
update - gcp: 0, gcpfactor: 20698, compression size: 512 
avodiable miss
penalized hit
update - gcp: 0, gcpfactor: 20698, compression size: 185 
penalized hit
penalized hit
penalized hit
penalized hit
update - gcp: 0, gcpfactor: 20694, compression size: 512 
penalized hit
update - gcp: 0, gcpfactor: 20693, compression size: 512 
update - gcp: 0, gcpfactor: 20693, compression size: 512 
update - gcp: 0, gcpfactor: 20693, compression size: 512 
update - gcp: 0, gcpfactor: 20693, compression size: 512 
update - gcp: 0, gcpfactor: 20693, compression size: 512 
avoided miss
penalized hit
update - gcp: 0, gcpfactor: 20693, compression size: 512 
update - gcp: 0, gcpfactor: 20693, compression size: 512 
update - gcp: 0, gcpfactor: 20693, compression size: 512 
update - gcp: 0, gcpfactor: 20693, compression size: 512 
update - gcp: 0, gcpfactor: 20693, compression size: 512 
update - gcp: 0, gcpfactor: 20693, compression size: 512 
update - gcp: 0, gcpfactor: 20693, compression size: 512 
penalized hit
penalized hit
update - gcp: 0, gcpfactor: 20691, compression size: 240 
update - gcp: 0, gcpfactor: 20691, compression size: 512 
update - gcp: 0, gcpfactor: 20691, compression size: 512 
penalized hit
penalized hit
update - gcp: 0, gcpfactor: 20689, compression size: 512 
penalized hit
update - gcp: 0, gcpfactor: 20688, compression size: 512 
update - gcp: 0, gcpfactor: 20688, compression size: 512 
update - gcp: 0, gcpfactor: 20688, compression size: 512 
update - gcp: 0, gcpfactor: 20688, compression size: 512 
update - gcp: 0, gcpfactor: 20688, compression size: 512 
update - gcp: 0, gcpfactor: 20688, compression size: 512 
update - gcp: 0, gcpfactor: 20688, compression size: 512 
update - gcp: 0, gcpfactor: 20688, compression size: 512 
update - gcp: 0, gcpfactor: 20688, compression size: 512 
update - gcp: 0, gcpfactor: 20688, compression size: 512 
penalized hit
update - gcp: 0, gcpfactor: 20687, compression size: 512 
update - gcp: 0, gcpfactor: 20687, compression size: 512 
update - gcp: 0, gcpfactor: 20687, compression size: 512 
update - gcp: 0, gcpfactor: 20687, compression size: 512 
update - gcp: 0, gcpfactor: 20687, compression size: 512 
update - gcp: 0, gcpfactor: 20687, compression size: 512 
update - gcp: 0, gcpfactor: 20687, compression size: 512 
update - gcp: 0, gcpfactor: 20687, compression size: 512 
penalized hit
update - gcp: 0, gcpfactor: 20686, compression size: 512 
update - gcp: 0, gcpfactor: 20686, compression size: 512 
update - gcp: 0, gcpfactor: 20686, compression size: 512 
update - gcp: 0, gcpfactor: 20686, compression size: 512 
update - gcp: 0, gcpfactor: 20686, compression size: 512 
update - gcp: 0, gcpfactor: 20686, compression size: 512 
update - gcp: 0, gcpfactor: 20686, compression size: 512 
update - gcp: 0, gcpfactor: 20686, compression size: 512 
update - gcp: 0, gcpfactor: 20686, compression size: 512 
update - gcp: 0, gcpfactor: 20686, compression size: 512 
update - gcp: 0, gcpfactor: 20686, compression size: 512 
update - gcp: 0, gcpfactor: 20686, compression size: 512 
update - gcp: 0, gcpfactor: 20686, compression size: 512 
update - gcp: 0, gcpfactor: 20686, compression size: 512 
update - gcp: 0, gcpfactor: 20686, compression size: 512 
update - gcp: 0, gcpfactor: 20686, compression size: 512 
update - gcp: 0, gcpfactor: 20686, compression size: 512 
penalized hit
update - gcp: 0, gcpfactor: 20685, compression size: 234 
avoided miss
update - gcp: 0, gcpfactor: 20686, compression size: 176 
penalized hit
update - gcp: 0, gcpfactor: 20685, compression size: 240 
penalized hit
update - gcp: 0, gcpfactor: 20684, compression size: 240 
avodiable miss
avoided miss
update - gcp: 0, gcpfactor: 20686, compression size: 129 
avoided miss
update - gcp: 0, gcpfactor: 20687, compression size: 249 
penalized hit
update - gcp: 0, gcpfactor: 20686, compression size: 512 
penalized hit
update - gcp: 0, gcpfactor: 20685, compression size: 232 
penalized hit
update - gcp: 0, gcpfactor: 20684, compression size: 512 
penalized hit
update - gcp: 0, gcpfactor: 20683, compression size: 224 
penalized hit
update - gcp: 0, gcpfactor: 20682, compression size: 512 
penalized hit
update - gcp: 0, gcpfactor: 20681, compression size: 216 
penalized hit
update - gcp: 0, gcpfactor: 20680, compression size: 512 
penalized hit
update - gcp: 0, gcpfactor: 20679, compression size: 208 
penalized hit
update - gcp: 0, gcpfactor: 20678, compression size: 512 
penalized hit
update - gcp: 0, gcpfactor: 20677, compression size: 200 
penalized hit
update - gcp: 0, gcpfactor: 20676, compression size: 512 
penalized hit
update - gcp: 0, gcpfactor: 20675, compression size: 192 
avodiable miss
avoided miss
update - gcp: 0, gcpfactor: 20677, compression size: 512 
penalized hit
update - gcp: 0, gcpfactor: 20676, compression size: 512 
penalized hit
update - gcp: 0, gcpfactor: 20675, compression size: 184 
penalized hit
update - gcp: 0, gcpfactor: 20674, compression size: 512 
avoided miss
avoided miss
update - gcp: 0, gcpfactor: 20676, compression size: 170 
avoided miss
penalized hit
update - gcp: 0, gcpfactor: 20676, compression size: 512 
update - gcp: 0, gcpfactor: 20676, compression size: 512 
update - gcp: 0, gcpfactor: 20676, compression size: 512 
update - gcp: 0, gcpfactor: 20676, compression size: 512 
update - gcp: 0, gcpfactor: 20676, compression size: 512 
update - gcp: 0, gcpfactor: 20676, compression size: 512 
avoided miss
penalized hit
update - gcp: 0, gcpfactor: 20676, compression size: 512 
update - gcp: 0, gcpfactor: 20676, compression size: 512 
update - gcp: 0, gcpfactor: 20676, compression size: 512 
update - gcp: 0, gcpfactor: 20676, compression size: 512 
update - gcp: 0, gcpfactor: 20676, compression size: 512 
update - gcp: 0, gcpfactor: 20676, compression size: 512 
update - gcp: 0, gcpfactor: 20676, compression size: 512 
penalized hit
penalized hit
update - gcp: 0, gcpfactor: 20674, compression size: 240 
update - gcp: 0, gcpfactor: 20674, compression size: 512 
update - gcp: 0, gcpfactor: 20674, compression size: 512 
penalized hit
update - gcp: 0, gcpfactor: 20673, compression size: 512 
penalized hit
update - gcp: 0, gcpfactor: 20672, compression size: 512 
avoided miss
update - gcp: 0, gcpfactor: 20673, compression size: 192 
update - gcp: 0, gcpfactor: 20673, compression size: 512 
update - gcp: 0, gcpfactor: 20673, compression size: 512 
update - gcp: 0, gcpfactor: 20673, compression size: 512 
update - gcp: 0, gcpfactor: 20673, compression size: 512 
update - gcp: 0, gcpfactor: 20673, compression size: 512 
update - gcp: 0, gcpfactor: 20673, compression size: 512 
update - gcp: 0, gcpfactor: 20673, compression size: 512 
update - gcp: 0, gcpfactor: 20673, compression size: 512 
penalized hit
update - gcp: 0, gcpfactor: 20672, compression size: 176 
update - gcp: 0, gcpfactor: 20672, compression size: 512 
penalized hit
update - gcp: 0, gcpfactor: 20671, compression size: 512 
penalized hit
update - gcp: 0, gcpfactor: 20670, compression size: 512 
update - gcp: 0, gcpfactor: 20670, compression size: 512 
update - gcp: 0, gcpfactor: 20670, compression size: 512 
update - gcp: 0, gcpfactor: 20670, compression size: 512 
update - gcp: 0, gcpfactor: 20670, compression size: 512 
update - gcp: 0, gcpfactor: 20670, compression size: 512 
update - gcp: 0, gcpfactor: 20670, compression size: 512 
update - gcp: 0, gcpfactor: 20670, compression size: 512 
update - gcp: 0, gcpfactor: 20670, compression size: 512 
update - gcp: 0, gcpfactor: 20670, compression size: 512 
update - gcp: 0, gcpfactor: 20670, compression size: 512 
update - gcp: 0, gcpfactor: 20670, compression size: 512 
update - gcp: 0, gcpfactor: 20670, compression size: 512 
update - gcp: 0, gcpfactor: 20670, compression size: 512 
update - gcp: 0, gcpfactor: 20670, compression size: 512 
update - gcp: 0, gcpfactor: 20670, compression size: 512 
update - gcp: 0, gcpfactor: 20670, compression size: 512 
update - gcp: 0, gcpfactor: 20670, compression size: 512 
update - gcp: 0, gcpfactor: 20670, compression size: 512 
update - gcp: 0, gcpfactor: 20670, compression size: 512 
update - gcp: 0, gcpfactor: 20670, compression size: 512 
update - gcp: 0, gcpfactor: 20670, compression size: 512 
update - gcp: 0, gcpfactor: 20670, compression size: 512 
update - gcp: 0, gcpfactor: 20670, compression size: 512 
penalized hit
update - gcp: 0, gcpfactor: 20669, compression size: 240 
avoided miss
update - gcp: 0, gcpfactor: 20670, compression size: 234 
avoided miss
update - gcp: 0, gcpfactor: 20671, compression size: 176 
penalized hit
update - gcp: 0, gcpfactor: 20670, compression size: 240 
avodiable miss
avoided miss
update - gcp: 0, gcpfactor: 20672, compression size: 512 
penalized hit
avoided miss
update - gcp: 0, gcpfactor: 20672, compression size: 129 
penalized hit
update - gcp: 0, gcpfactor: 20671, compression size: 512 
penalized hit
update - gcp: 0, gcpfactor: 20670, compression size: 176 
penalized hit
update - gcp: 0, gcpfactor: 20669, compression size: 512 
penalized hit
update - gcp: 0, gcpfactor: 20668, compression size: 176 
penalized hit
update - gcp: 0, gcpfactor: 20667, compression size: 512 
penalized hit
update - gcp: 0, gcpfactor: 20666, compression size: 176 
penalized hit
update - gcp: 0, gcpfactor: 20665, compression size: 512 
penalized hit
update - gcp: 0, gcpfactor: 20664, compression size: 176 
penalized hit
update - gcp: 0, gcpfactor: 20663, compression size: 512 
penalized hit
update - gcp: 0, gcpfactor: 20662, compression size: 176 
penalized hit
update - gcp: 0, gcpfactor: 20661, compression size: 512 
penalized hit
update - gcp: 0, gcpfactor: 20660, compression size: 176 
avodiable miss
penalized hit
update - gcp: 0, gcpfactor: 20660, compression size: 253 
avoided miss
penalized hit
penalized hit
update - gcp: 0, gcpfactor: 20659, compression size: 512 
penalized hit
update - gcp: 0, gcpfactor: 20658, compression size: 176 
penalized hit
update - gcp: 0, gcpfactor: 20657, compression size: 512 
penalized hit
avoided miss
avoided miss
penalized hit
update - gcp: 0, gcpfactor: 20657, compression size: 512 
avoided miss
update - gcp: 0, gcpfactor: 20658, compression size: 512 
Exiting @ tick 7298520500 because a thread reached the max instruction count
