Global frequency set at 1000000000000 ticks per second
gem5 Simulator System.  https://www.gem5.org
gem5 is copyrighted software; use the --copyright option for details.

gem5 version 22.0.0.2
gem5 compiled Dec  7 2024 03:15:40
gem5 started Dec  7 2024 03:17:35
gem5 executing on qstruct.ecn.purdue.edu, pid 25209
command line: ./build/ECE565-ARM/gem5.opt configs/spec/spec_se.py --cpu-type ArmMinorCPU --l1d_size=64kB --l1i_size=64kB --caches --l2cache --l2_compressor --gcp -b astar --maxinsts=10000000

**** REAL SIMULATION ****
gcpfactor has to 0<: 0 
uncompressed size: 512
gcpfactor has to 0<: 0 
uncompressed size: 512
avodiable miss
gcpfactor has to 0>: 1 
compressed size: 117 
gcpfactor has to 0>: 1 
compressed size: 512 
gcpfactor has to 0>: 1 
compressed size: 512 
avodiable miss
gcpfactor has to 0>: 2 
compressed size: 512 
gcpfactor has to 0>: 2 
compressed size: 12 
gcpfactor has to 0>: 2 
compressed size: 512 
gcpfactor has to 0>: 2 
compressed size: 512 
gcpfactor has to 0>: 2 
compressed size: 12 
avodiable miss
gcpfactor has to 0>: 3 
compressed size: 512 
gcpfactor has to 0>: 3 
compressed size: 12 
gcpfactor has to 0>: 3 
compressed size: 169 
gcpfactor has to 0>: 3 
compressed size: 132 
gcpfactor has to 0>: 3 
compressed size: 512 
gcpfactor has to 0>: 3 
compressed size: 25 
gcpfactor has to 0>: 3 
compressed size: 12 
gcpfactor has to 0>: 3 
compressed size: 512 
avodiable miss
gcpfactor has to 0>: 4 
compressed size: 512 
gcpfactor has to 0>: 4 
compressed size: 12 
gcpfactor has to 0>: 4 
compressed size: 12 
gcpfactor has to 0>: 4 
compressed size: 512 
avodiable miss
gcpfactor has to 0>: 5 
compressed size: 12 
gcpfactor has to 0>: 5 
compressed size: 12 
gcpfactor has to 0>: 5 
compressed size: 512 
gcpfactor has to 0>: 5 
compressed size: 135 
gcpfactor has to 0>: 5 
compressed size: 12 
gcpfactor has to 0>: 5 
compressed size: 512 
gcpfactor has to 0>: 5 
compressed size: 12 
avodiable miss
gcpfactor has to 0>: 6 
compressed size: 512 
gcpfactor has to 0>: 6 
compressed size: 202 
gcpfactor has to 0>: 6 
compressed size: 512 
gcpfactor has to 0>: 6 
compressed size: 512 
gcpfactor has to 0>: 6 
compressed size: 512 
avodiable miss
gcpfactor has to 0>: 7 
compressed size: 512 
gcpfactor has to 0>: 7 
compressed size: 512 
avodiable miss
gcpfactor has to 0>: 8 
compressed size: 512 
gcpfactor has to 0>: 8 
compressed size: 223 
avodiable miss
gcpfactor has to 0>: 9 
compressed size: 512 
gcpfactor has to 0>: 9 
compressed size: 111 
gcpfactor has to 0>: 9 
compressed size: 149 
gcpfactor has to 0>: 9 
compressed size: 57 
avodiable miss
gcpfactor has to 0>: 10 
compressed size: 512 
avodiable miss
gcpfactor has to 0>: 11 
compressed size: 230 
avodiable miss
gcpfactor has to 0>: 12 
compressed size: 512 
gcpfactor has to 0>: 12 
compressed size: 512 
avodiable miss
gcpfactor has to 0>: 13 
compressed size: 512 
gcpfactor has to 0>: 13 
compressed size: 512 
avodiable miss
gcpfactor has to 0>: 14 
compressed size: 512 
gcpfactor has to 0>: 14 
compressed size: 512 
gcpfactor has to 0>: 14 
compressed size: 512 
avodiable miss
gcpfactor has to 0>: 15 
compressed size: 512 
gcpfactor has to 0>: 15 
compressed size: 512 
gcpfactor has to 0>: 15 
compressed size: 512 
avodiable miss
gcpfactor has to 0>: 16 
compressed size: 512 
gcpfactor has to 0>: 16 
compressed size: 135 
gcpfactor has to 0>: 16 
compressed size: 79 
gcpfactor has to 0>: 16 
compressed size: 512 
avodiable miss
gcpfactor has to 0>: 17 
compressed size: 512 
avodiable miss
gcpfactor has to 0>: 18 
compressed size: 512 
gcpfactor has to 0>: 18 
compressed size: 190 
gcpfactor has to 0>: 18 
compressed size: 512 
gcpfactor has to 0>: 18 
compressed size: 12 
gcpfactor has to 0>: 18 
compressed size: 512 
gcpfactor has to 0>: 18 
compressed size: 512 
avodiable miss
gcpfactor has to 0>: 19 
compressed size: 512 
gcpfactor has to 0>: 19 
compressed size: 512 
avodiable miss
gcpfactor has to 0>: 20 
compressed size: 512 
gcpfactor has to 0>: 20 
compressed size: 512 
gcpfactor has to 0>: 20 
compressed size: 512 
avodiable miss
gcpfactor has to 0>: 21 
compressed size: 512 
gcpfactor has to 0>: 21 
compressed size: 512 
avodiable miss
gcpfactor has to 0>: 22 
compressed size: 512 
gcpfactor has to 0>: 22 
compressed size: 512 
gcpfactor has to 0>: 22 
compressed size: 512 
gcpfactor has to 0>: 22 
compressed size: 512 
gcpfactor has to 0>: 22 
compressed size: 512 
gcpfactor has to 0>: 22 
compressed size: 512 
gcpfactor has to 0>: 22 
compressed size: 512 
gcpfactor has to 0>: 22 
compressed size: 512 
avodiable miss
gcpfactor has to 0>: 23 
compressed size: 512 
avodiable miss
gcpfactor has to 0>: 24 
compressed size: 512 
avodiable miss
gcpfactor has to 0>: 25 
compressed size: 512 
avodiable miss
gcpfactor has to 0>: 26 
compressed size: 512 
gcpfactor has to 0>: 26 
compressed size: 512 
avodiable miss
gcpfactor has to 0>: 27 
compressed size: 512 
gcpfactor has to 0>: 27 
compressed size: 229 
gcpfactor has to 0>: 27 
compressed size: 512 
avodiable miss
gcpfactor has to 0>: 28 
compressed size: 191 
gcpfactor has to 0>: 28 
compressed size: 512 
gcpfactor has to 0>: 28 
compressed size: 237 
gcpfactor has to 0>: 28 
compressed size: 225 
gcpfactor has to 0>: 28 
compressed size: 140 
gcpfactor has to 0>: 28 
compressed size: 512 
avodiable miss
gcpfactor has to 0>: 29 
compressed size: 230 
gcpfactor has to 0>: 29 
compressed size: 512 
gcpfactor has to 0>: 29 
compressed size: 512 
avodiable miss
gcpfactor has to 0>: 30 
compressed size: 512 
gcpfactor has to 0>: 30 
compressed size: 12 
gcpfactor has to 0>: 30 
compressed size: 512 
gcpfactor has to 0>: 30 
compressed size: 12 
avodiable miss
gcpfactor has to 0>: 31 
compressed size: 512 
gcpfactor has to 0>: 31 
compressed size: 512 
avodiable miss
gcpfactor has to 0>: 32 
compressed size: 512 
gcpfactor has to 0>: 32 
compressed size: 512 
gcpfactor has to 0>: 32 
compressed size: 512 
gcpfactor has to 0>: 32 
compressed size: 512 
gcpfactor has to 0>: 32 
compressed size: 12 
gcpfactor has to 0>: 32 
compressed size: 12 
gcpfactor has to 0>: 32 
compressed size: 512 
avodiable miss
gcpfactor has to 0>: 33 
compressed size: 512 
gcpfactor has to 0>: 33 
compressed size: 512 
avodiable miss
gcpfactor has to 0>: 34 
compressed size: 512 
gcpfactor has to 0>: 34 
compressed size: 512 
gcpfactor has to 0>: 34 
compressed size: 512 
avodiable miss
gcpfactor has to 0>: 35 
compressed size: 12 
gcpfactor has to 0>: 35 
compressed size: 512 
gcpfactor has to 0>: 35 
compressed size: 12 
gcpfactor has to 0>: 35 
compressed size: 12 
gcpfactor has to 0>: 35 
compressed size: 512 
gcpfactor has to 0>: 35 
compressed size: 12 
gcpfactor has to 0>: 35 
compressed size: 512 
gcpfactor has to 0>: 35 
compressed size: 12 
avodiable miss
gcpfactor has to 0>: 36 
compressed size: 512 
gcpfactor has to 0>: 36 
compressed size: 512 
gcpfactor has to 0>: 36 
compressed size: 115 
avodiable miss
gcpfactor has to 0>: 37 
compressed size: 512 
gcpfactor has to 0>: 37 
compressed size: 512 
gcpfactor has to 0>: 37 
compressed size: 512 
avodiable miss
gcpfactor has to 0>: 38 
compressed size: 512 
gcpfactor has to 0>: 38 
compressed size: 12 
gcpfactor has to 0>: 38 
compressed size: 512 
gcpfactor has to 0>: 38 
compressed size: 512 
avodiable miss
gcpfactor has to 0>: 39 
compressed size: 512 
gcpfactor has to 0>: 39 
compressed size: 512 
avodiable miss
gcpfactor has to 0>: 40 
compressed size: 66 
gcpfactor has to 0>: 40 
compressed size: 512 
gcpfactor has to 0>: 40 
compressed size: 512 
avodiable miss
gcpfactor has to 0>: 41 
compressed size: 512 
avodiable miss
gcpfactor has to 0>: 42 
compressed size: 512 
gcpfactor has to 0>: 42 
compressed size: 512 
gcpfactor has to 0>: 42 
compressed size: 512 
avodiable miss
gcpfactor has to 0>: 43 
compressed size: 512 
gcpfactor has to 0>: 43 
compressed size: 512 
gcpfactor has to 0>: 43 
compressed size: 512 
avodiable miss
gcpfactor has to 0>: 44 
compressed size: 512 
gcpfactor has to 0>: 44 
compressed size: 12 
gcpfactor has to 0>: 44 
compressed size: 512 
gcpfactor has to 0>: 44 
compressed size: 12 
gcpfactor has to 0>: 44 
compressed size: 512 
gcpfactor has to 0>: 44 
compressed size: 512 
gcpfactor has to 0>: 44 
compressed size: 512 
avodiable miss
gcpfactor has to 0>: 45 
compressed size: 512 
gcpfactor has to 0>: 45 
compressed size: 12 
gcpfactor has to 0>: 45 
compressed size: 512 
avodiable miss
gcpfactor has to 0>: 46 
compressed size: 512 
gcpfactor has to 0>: 46 
compressed size: 512 
avodiable miss
gcpfactor has to 0>: 47 
compressed size: 512 
avodiable miss
gcpfactor has to 0>: 48 
compressed size: 512 
gcpfactor has to 0>: 48 
compressed size: 101 
gcpfactor has to 0>: 48 
compressed size: 512 
gcpfactor has to 0>: 48 
compressed size: 53 
avodiable miss
gcpfactor has to 0>: 49 
compressed size: 512 
gcpfactor has to 0>: 49 
compressed size: 512 
gcpfactor has to 0>: 49 
compressed size: 512 
avodiable miss
gcpfactor has to 0>: 50 
compressed size: 512 
gcpfactor has to 0>: 50 
compressed size: 512 
gcpfactor has to 0>: 50 
compressed size: 512 
gcpfactor has to 0>: 50 
compressed size: 512 
gcpfactor has to 0>: 50 
compressed size: 512 
avodiable miss
gcpfactor has to 0>: 51 
compressed size: 512 
avodiable miss
gcpfactor has to 0>: 52 
compressed size: 512 
gcpfactor has to 0>: 52 
compressed size: 512 
gcpfactor has to 0>: 52 
compressed size: 512 
gcpfactor has to 0>: 52 
compressed size: 512 
gcpfactor has to 0>: 52 
compressed size: 512 
avodiable miss
gcpfactor has to 0>: 53 
compressed size: 512 
avodiable miss
gcpfactor has to 0>: 54 
compressed size: 512 
gcpfactor has to 0>: 54 
compressed size: 512 
avodiable miss
gcpfactor has to 0>: 55 
compressed size: 512 
gcpfactor has to 0>: 55 
compressed size: 512 
avodiable miss
gcpfactor has to 0>: 56 
compressed size: 512 
gcpfactor has to 0>: 56 
compressed size: 12 
gcpfactor has to 0>: 56 
compressed size: 512 
gcpfactor has to 0>: 56 
compressed size: 512 
gcpfactor has to 0>: 56 
compressed size: 512 
gcpfactor has to 0>: 56 
compressed size: 12 
avodiable miss
gcpfactor has to 0>: 57 
compressed size: 512 
gcpfactor has to 0>: 57 
compressed size: 12 
gcpfactor has to 0>: 57 
compressed size: 12 
gcpfactor has to 0>: 57 
compressed size: 512 
gcpfactor has to 0>: 57 
compressed size: 114 
gcpfactor has to 0>: 57 
compressed size: 140 
avodiable miss
gcpfactor has to 0>: 58 
compressed size: 512 
gcpfactor has to 0>: 58 
compressed size: 512 
gcpfactor has to 0>: 58 
compressed size: 512 
avodiable miss
gcpfactor has to 0>: 59 
compressed size: 512 
gcpfactor has to 0>: 59 
compressed size: 512 
avodiable miss
gcpfactor has to 0>: 60 
compressed size: 512 
gcpfactor has to 0>: 60 
compressed size: 512 
gcpfactor has to 0>: 60 
compressed size: 512 
avodiable miss
gcpfactor has to 0>: 61 
compressed size: 512 
gcpfactor has to 0>: 61 
compressed size: 512 
gcpfactor has to 0>: 61 
compressed size: 512 
gcpfactor has to 0>: 61 
compressed size: 512 
avodiable miss
gcpfactor has to 0>: 62 
compressed size: 512 
gcpfactor has to 0>: 62 
compressed size: 512 
avodiable miss
gcpfactor has to 0>: 63 
compressed size: 512 
gcpfactor has to 0>: 63 
compressed size: 512 
avodiable miss
gcpfactor has to 0>: 64 
compressed size: 512 
gcpfactor has to 0>: 64 
compressed size: 512 
gcpfactor has to 0>: 64 
compressed size: 512 
avodiable miss
gcpfactor has to 0>: 65 
compressed size: 168 
gcpfactor has to 0>: 65 
compressed size: 512 
gcpfactor has to 0>: 65 
compressed size: 512 
gcpfactor has to 0>: 65 
compressed size: 512 
gcpfactor has to 0>: 65 
compressed size: 12 
avodiable miss
gcpfactor has to 0>: 66 
compressed size: 512 
gcpfactor has to 0>: 66 
compressed size: 12 
gcpfactor has to 0>: 66 
compressed size: 512 
gcpfactor has to 0>: 66 
compressed size: 512 
gcpfactor has to 0>: 66 
compressed size: 12 
avodiable miss
gcpfactor has to 0>: 67 
compressed size: 512 
gcpfactor has to 0>: 67 
compressed size: 12 
gcpfactor has to 0>: 67 
compressed size: 12 
gcpfactor has to 0>: 67 
compressed size: 512 
gcpfactor has to 0>: 67 
compressed size: 12 
gcpfactor has to 0>: 67 
compressed size: 512 
gcpfactor has to 0>: 67 
compressed size: 12 
gcpfactor has to 0>: 67 
compressed size: 12 
gcpfactor has to 0>: 67 
compressed size: 12 
gcpfactor has to 0>: 67 
compressed size: 12 
gcpfactor has to 0>: 67 
compressed size: 12 
gcpfactor has to 0>: 67 
compressed size: 12 
gcpfactor has to 0>: 67 
compressed size: 12 
gcpfactor has to 0>: 67 
compressed size: 12 
gcpfactor has to 0>: 67 
compressed size: 12 
gcpfactor has to 0>: 67 
compressed size: 12 
gcpfactor has to 0>: 67 
compressed size: 12 
gcpfactor has to 0>: 67 
compressed size: 12 
gcpfactor has to 0>: 67 
compressed size: 12 
gcpfactor has to 0>: 67 
compressed size: 12 
gcpfactor has to 0>: 67 
compressed size: 12 
gcpfactor has to 0>: 67 
compressed size: 12 
gcpfactor has to 0>: 67 
compressed size: 12 
gcpfactor has to 0>: 67 
compressed size: 12 
gcpfactor has to 0>: 67 
compressed size: 12 
gcpfactor has to 0>: 67 
compressed size: 12 
gcpfactor has to 0>: 67 
compressed size: 12 
gcpfactor has to 0>: 67 
compressed size: 12 
gcpfactor has to 0>: 67 
compressed size: 12 
gcpfactor has to 0>: 67 
compressed size: 12 
gcpfactor has to 0>: 67 
compressed size: 12 
gcpfactor has to 0>: 67 
compressed size: 12 
gcpfactor has to 0>: 67 
compressed size: 12 
gcpfactor has to 0>: 67 
compressed size: 12 
gcpfactor has to 0>: 67 
compressed size: 66 
avodiable miss
gcpfactor has to 0>: 68 
compressed size: 512 
gcpfactor has to 0>: 68 
compressed size: 12 
gcpfactor has to 0>: 68 
compressed size: 12 
gcpfactor has to 0>: 68 
compressed size: 141 
gcpfactor has to 0>: 68 
compressed size: 83 
gcpfactor has to 0>: 68 
compressed size: 175 
gcpfactor has to 0>: 68 
compressed size: 512 
gcpfactor has to 0>: 68 
compressed size: 135 
gcpfactor has to 0>: 68 
compressed size: 121 
gcpfactor has to 0>: 68 
compressed size: 135 
avodiable miss
gcpfactor has to 0>: 69 
compressed size: 512 
gcpfactor has to 0>: 69 
compressed size: 80 
gcpfactor has to 0>: 69 
compressed size: 86 
gcpfactor has to 0>: 69 
compressed size: 512 
gcpfactor has to 0>: 69 
compressed size: 115 
gcpfactor has to 0>: 69 
compressed size: 512 
gcpfactor has to 0>: 69 
compressed size: 512 
avodiable miss
gcpfactor has to 0>: 70 
compressed size: 512 
gcpfactor has to 0>: 70 
compressed size: 512 
gcpfactor has to 0>: 70 
compressed size: 512 
gcpfactor has to 0>: 70 
compressed size: 512 
avodiable miss
gcpfactor has to 0>: 71 
compressed size: 512 
gcpfactor has to 0>: 71 
compressed size: 61 
gcpfactor has to 0>: 71 
compressed size: 512 
update - gcp: 1, gcpfactor: 71, compression size: 512 
gcpfactor has to 0>: 71 
compressed size: 512 
avodiable miss
gcpfactor has to 0>: 72 
compressed size: 512 
gcpfactor has to 0>: 72 
compressed size: 12 
gcpfactor has to 0>: 72 
compressed size: 512 
avodiable miss
gcpfactor has to 0>: 73 
compressed size: 12 
gcpfactor has to 0>: 73 
compressed size: 512 
gcpfactor has to 0>: 73 
compressed size: 12 
gcpfactor has to 0>: 73 
compressed size: 512 
avodiable miss
gcpfactor has to 0>: 74 
compressed size: 512 
gcpfactor has to 0>: 74 
compressed size: 512 
gcpfactor has to 0>: 74 
compressed size: 512 
avodiable miss
gcpfactor has to 0>: 75 
compressed size: 512 
gcpfactor has to 0>: 75 
compressed size: 512 
avodiable miss
gcpfactor has to 0>: 76 
compressed size: 512 
gcpfactor has to 0>: 76 
compressed size: 512 
avodiable miss
gcpfactor has to 0>: 77 
compressed size: 512 
gcpfactor has to 0>: 77 
compressed size: 512 
avodiable miss
gcpfactor has to 0>: 78 
compressed size: 512 
gcpfactor has to 0>: 78 
compressed size: 512 
avodiable miss
gcpfactor has to 0>: 79 
compressed size: 512 
gcpfactor has to 0>: 79 
compressed size: 512 
avodiable miss
gcpfactor has to 0>: 80 
compressed size: 512 
gcpfactor has to 0>: 80 
compressed size: 512 
gcpfactor has to 0>: 80 
compressed size: 512 
gcpfactor has to 0>: 80 
compressed size: 512 
avodiable miss
gcpfactor has to 0>: 81 
compressed size: 512 
gcpfactor has to 0>: 81 
compressed size: 12 
gcpfactor has to 0>: 81 
compressed size: 512 
gcpfactor has to 0>: 81 
compressed size: 12 
avodiable miss
gcpfactor has to 0>: 82 
compressed size: 512 
gcpfactor has to 0>: 82 
compressed size: 158 
gcpfactor has to 0>: 82 
compressed size: 512 
avodiable miss
gcpfactor has to 0>: 83 
compressed size: 512 
gcpfactor has to 0>: 83 
compressed size: 512 
avodiable miss
gcpfactor has to 0>: 84 
compressed size: 512 
gcpfactor has to 0>: 84 
compressed size: 512 
avodiable miss
gcpfactor has to 0>: 85 
compressed size: 512 
gcpfactor has to 0>: 85 
compressed size: 512 
avodiable miss
gcpfactor has to 0>: 86 
compressed size: 512 
gcpfactor has to 0>: 86 
compressed size: 512 
gcpfactor has to 0>: 86 
compressed size: 12 
avodiable miss
gcpfactor has to 0>: 87 
compressed size: 512 
gcpfactor has to 0>: 87 
compressed size: 12 
gcpfactor has to 0>: 87 
compressed size: 512 
avodiable miss
gcpfactor has to 0>: 88 
compressed size: 512 
gcpfactor has to 0>: 88 
compressed size: 512 
gcpfactor has to 0>: 88 
compressed size: 512 
gcpfactor has to 0>: 88 
compressed size: 512 
avodiable miss
gcpfactor has to 0>: 89 
compressed size: 512 
gcpfactor has to 0>: 89 
compressed size: 512 
avodiable miss
gcpfactor has to 0>: 90 
compressed size: 512 
avodiable miss
gcpfactor has to 0>: 91 
compressed size: 512 
avodiable miss
gcpfactor has to 0>: 92 
compressed size: 512 
gcpfactor has to 0>: 92 
compressed size: 12 
gcpfactor has to 0>: 92 
compressed size: 512 
avodiable miss
gcpfactor has to 0>: 93 
compressed size: 512 
gcpfactor has to 0>: 93 
compressed size: 512 
gcpfactor has to 0>: 93 
compressed size: 12 
avodiable miss
gcpfactor has to 0>: 94 
compressed size: 512 
gcpfactor has to 0>: 94 
compressed size: 512 
avodiable miss
gcpfactor has to 0>: 95 
compressed size: 512 
gcpfactor has to 0>: 95 
compressed size: 512 
avodiable miss
gcpfactor has to 0>: 96 
compressed size: 512 
avodiable miss
gcpfactor has to 0>: 97 
compressed size: 512 
update - gcp: 1, gcpfactor: 97, compression size: 512 
gcpfactor has to 0>: 97 
compressed size: 512 
avodiable miss
gcpfactor has to 0>: 98 
compressed size: 512 
gcpfactor has to 0>: 98 
compressed size: 512 
avodiable miss
gcpfactor has to 0>: 99 
compressed size: 512 
gcpfactor has to 0>: 99 
compressed size: 512 
avodiable miss
gcpfactor has to 0>: 100 
compressed size: 12 
gcpfactor has to 0>: 100 
compressed size: 512 
gcpfactor has to 0>: 100 
compressed size: 512 
gcpfactor has to 0>: 100 
compressed size: 12 
gcpfactor has to 0>: 100 
compressed size: 512 
gcpfactor has to 0>: 100 
compressed size: 512 
gcpfactor has to 0>: 100 
compressed size: 12 
avodiable miss
gcpfactor has to 0>: 101 
compressed size: 512 
gcpfactor has to 0>: 101 
compressed size: 512 
avodiable miss
gcpfactor has to 0>: 102 
compressed size: 512 
avodiable miss
gcpfactor has to 0>: 103 
compressed size: 12 
gcpfactor has to 0>: 103 
compressed size: 512 
avodiable miss
gcpfactor has to 0>: 104 
compressed size: 512 
gcpfactor has to 0>: 104 
compressed size: 12 
avodiable miss
gcpfactor has to 0>: 105 
compressed size: 512 
gcpfactor has to 0>: 105 
compressed size: 512 
avodiable miss
gcpfactor has to 0>: 106 
compressed size: 512 
gcpfactor has to 0>: 106 
compressed size: 512 
gcpfactor has to 0>: 106 
compressed size: 512 
gcpfactor has to 0>: 106 
compressed size: 12 
gcpfactor has to 0>: 106 
compressed size: 512 
avodiable miss
gcpfactor has to 0>: 107 
compressed size: 512 
gcpfactor has to 0>: 107 
compressed size: 512 
avodiable miss
gcpfactor has to 0>: 108 
compressed size: 512 
gcpfactor has to 0>: 108 
compressed size: 512 
avodiable miss
gcpfactor has to 0>: 109 
compressed size: 512 
avodiable miss
gcpfactor has to 0>: 110 
compressed size: 512 
gcpfactor has to 0>: 110 
compressed size: 512 
avodiable miss
gcpfactor has to 0>: 111 
compressed size: 12 
gcpfactor has to 0>: 111 
compressed size: 512 
gcpfactor has to 0>: 111 
compressed size: 12 
gcpfactor has to 0>: 111 
compressed size: 512 
gcpfactor has to 0>: 111 
compressed size: 213 
gcpfactor has to 0>: 111 
compressed size: 12 
avodiable miss
gcpfactor has to 0>: 112 
compressed size: 512 
update - gcp: 1, gcpfactor: 112, compression size: 512 
update - gcp: 1, gcpfactor: 112, compression size: 512 
gcpfactor has to 0>: 112 
compressed size: 512 
avodiable miss
gcpfactor has to 0>: 113 
compressed size: 512 
gcpfactor has to 0>: 113 
compressed size: 512 
gcpfactor has to 0>: 113 
compressed size: 512 
avodiable miss
gcpfactor has to 0>: 114 
compressed size: 512 
gcpfactor has to 0>: 114 
compressed size: 512 
gcpfactor has to 0>: 114 
compressed size: 512 
gcpfactor has to 0>: 114 
compressed size: 512 
avodiable miss
gcpfactor has to 0>: 115 
compressed size: 512 
avodiable miss
gcpfactor has to 0>: 116 
compressed size: 512 
gcpfactor has to 0>: 116 
compressed size: 512 
avodiable miss
gcpfactor has to 0>: 117 
compressed size: 512 
avodiable miss
gcpfactor has to 0>: 118 
compressed size: 512 
gcpfactor has to 0>: 118 
compressed size: 52 
gcpfactor has to 0>: 118 
compressed size: 512 
avodiable miss
gcpfactor has to 0>: 119 
compressed size: 512 
gcpfactor has to 0>: 119 
compressed size: 512 
avodiable miss
gcpfactor has to 0>: 120 
compressed size: 512 
gcpfactor has to 0>: 120 
compressed size: 512 
avodiable miss
gcpfactor has to 0>: 121 
compressed size: 512 
gcpfactor has to 0>: 121 
compressed size: 512 
avodiable miss
gcpfactor has to 0>: 122 
compressed size: 512 
gcpfactor has to 0>: 122 
compressed size: 512 
avodiable miss
gcpfactor has to 0>: 123 
compressed size: 512 
gcpfactor has to 0>: 123 
compressed size: 512 
gcpfactor has to 0>: 123 
compressed size: 512 
avodiable miss
gcpfactor has to 0>: 124 
compressed size: 512 
gcpfactor has to 0>: 124 
compressed size: 512 
avodiable miss
gcpfactor has to 0>: 125 
compressed size: 512 
gcpfactor has to 0>: 125 
compressed size: 512 
avodiable miss
gcpfactor has to 0>: 126 
compressed size: 512 
avodiable miss
gcpfactor has to 0>: 127 
compressed size: 512 
avodiable miss
gcpfactor has to 0>: 128 
compressed size: 512 
gcpfactor has to 0>: 128 
compressed size: 512 
avodiable miss
gcpfactor has to 0>: 129 
compressed size: 512 
gcpfactor has to 0>: 129 
compressed size: 256 
gcpfactor has to 0>: 129 
compressed size: 512 
gcpfactor has to 0>: 129 
compressed size: 205 
gcpfactor has to 0>: 129 
compressed size: 160 
gcpfactor has to 0>: 129 
compressed size: 512 
avodiable miss
gcpfactor has to 0>: 130 
compressed size: 512 
gcpfactor has to 0>: 130 
compressed size: 512 
avodiable miss
gcpfactor has to 0>: 131 
compressed size: 512 
gcpfactor has to 0>: 131 
compressed size: 512 
gcpfactor has to 0>: 131 
compressed size: 512 
avodiable miss
gcpfactor has to 0>: 132 
compressed size: 512 
gcpfactor has to 0>: 132 
compressed size: 12 
gcpfactor has to 0>: 132 
compressed size: 512 
avodiable miss
gcpfactor has to 0>: 133 
compressed size: 12 
gcpfactor has to 0>: 133 
compressed size: 512 
avodiable miss
gcpfactor has to 0>: 134 
compressed size: 512 
avodiable miss
gcpfactor has to 0>: 135 
compressed size: 512 
gcpfactor has to 0>: 135 
compressed size: 512 
avodiable miss
gcpfactor has to 0>: 136 
compressed size: 512 
gcpfactor has to 0>: 136 
compressed size: 512 
avodiable miss
gcpfactor has to 0>: 137 
compressed size: 147 
gcpfactor has to 0>: 137 
compressed size: 512 
update - gcp: 1, gcpfactor: 137, compression size: 512 
gcpfactor has to 0>: 137 
compressed size: 512 
gcpfactor has to 0>: 137 
compressed size: 512 
avodiable miss
gcpfactor has to 0>: 138 
compressed size: 512 
gcpfactor has to 0>: 138 
compressed size: 512 
gcpfactor has to 0>: 138 
compressed size: 512 
gcpfactor has to 0>: 138 
compressed size: 512 
gcpfactor has to 0>: 138 
compressed size: 512 
gcpfactor has to 0>: 138 
compressed size: 512 
gcpfactor has to 0>: 138 
compressed size: 512 
avodiable miss
gcpfactor has to 0>: 139 
compressed size: 512 
gcpfactor has to 0>: 139 
compressed size: 512 
avodiable miss
gcpfactor has to 0>: 140 
compressed size: 512 
gcpfactor has to 0>: 140 
compressed size: 53 
gcpfactor has to 0>: 140 
compressed size: 12 
gcpfactor has to 0>: 140 
compressed size: 12 
gcpfactor has to 0>: 140 
compressed size: 512 
avodiable miss
gcpfactor has to 0>: 141 
compressed size: 512 
gcpfactor has to 0>: 141 
compressed size: 12 
gcpfactor has to 0>: 141 
compressed size: 12 
avodiable miss
gcpfactor has to 0>: 142 
compressed size: 12 
gcpfactor has to 0>: 142 
compressed size: 512 
gcpfactor has to 0>: 142 
compressed size: 512 
avodiable miss
gcpfactor has to 0>: 143 
compressed size: 512 
gcpfactor has to 0>: 143 
compressed size: 12 
gcpfactor has to 0>: 143 
compressed size: 207 
gcpfactor has to 0>: 143 
compressed size: 512 
avodiable miss
gcpfactor has to 0>: 144 
compressed size: 512 
gcpfactor has to 0>: 144 
compressed size: 512 
avodiable miss
gcpfactor has to 0>: 145 
compressed size: 512 
gcpfactor has to 0>: 145 
compressed size: 512 
gcpfactor has to 0>: 145 
compressed size: 512 
avodiable miss
gcpfactor has to 0>: 146 
compressed size: 512 
gcpfactor has to 0>: 146 
compressed size: 12 
gcpfactor has to 0>: 146 
compressed size: 512 
gcpfactor has to 0>: 146 
compressed size: 12 
avodiable miss
gcpfactor has to 0>: 147 
compressed size: 512 
gcpfactor has to 0>: 147 
compressed size: 12 
gcpfactor has to 0>: 147 
compressed size: 12 
gcpfactor has to 0>: 147 
compressed size: 512 
gcpfactor has to 0>: 147 
compressed size: 512 
gcpfactor has to 0>: 147 
compressed size: 12 
gcpfactor has to 0>: 147 
compressed size: 512 
avodiable miss
gcpfactor has to 0>: 148 
compressed size: 512 
gcpfactor has to 0>: 148 
compressed size: 12 
gcpfactor has to 0>: 148 
compressed size: 512 
gcpfactor has to 0>: 148 
compressed size: 135 
gcpfactor has to 0>: 148 
compressed size: 512 
avodiable miss
gcpfactor has to 0>: 149 
compressed size: 512 
gcpfactor has to 0>: 149 
compressed size: 47 
gcpfactor has to 0>: 149 
compressed size: 108 
gcpfactor has to 0>: 149 
compressed size: 512 
avodiable miss
gcpfactor has to 0>: 150 
compressed size: 53 
gcpfactor has to 0>: 150 
compressed size: 512 
gcpfactor has to 0>: 150 
compressed size: 512 
gcpfactor has to 0>: 150 
compressed size: 512 
gcpfactor has to 0>: 150 
compressed size: 512 
gcpfactor has to 0>: 150 
compressed size: 512 
avodiable miss
gcpfactor has to 0>: 151 
compressed size: 512 
gcpfactor has to 0>: 151 
compressed size: 12 
gcpfactor has to 0>: 151 
compressed size: 512 
avodiable miss
gcpfactor has to 0>: 152 
compressed size: 512 
gcpfactor has to 0>: 152 
compressed size: 512 
gcpfactor has to 0>: 152 
compressed size: 512 
avodiable miss
gcpfactor has to 0>: 153 
compressed size: 512 
gcpfactor has to 0>: 153 
compressed size: 512 
update - gcp: 1, gcpfactor: 153, compression size: 512 
avodiable miss
gcpfactor has to 0>: 154 
compressed size: 512 
gcpfactor has to 0>: 154 
compressed size: 12 
update - gcp: 1, gcpfactor: 154, compression size: 512 
gcpfactor has to 0>: 154 
compressed size: 512 
avodiable miss
gcpfactor has to 0>: 155 
compressed size: 512 
gcpfactor has to 0>: 155 
compressed size: 80 
gcpfactor has to 0>: 155 
compressed size: 512 
avodiable miss
gcpfactor has to 0>: 156 
compressed size: 512 
gcpfactor has to 0>: 156 
compressed size: 512 
avodiable miss
gcpfactor has to 0>: 157 
compressed size: 512 
gcpfactor has to 0>: 157 
compressed size: 12 
gcpfactor has to 0>: 157 
compressed size: 512 
update - gcp: 1, gcpfactor: 157, compression size: 512 
gcpfactor has to 0>: 157 
compressed size: 512 
avodiable miss
avodiable miss
gcpfactor has to 0>: 159 
compressed size: 512 
gcpfactor has to 0>: 159 
compressed size: 512 
gcpfactor has to 0>: 159 
compressed size: 512 
gcpfactor has to 0>: 159 
compressed size: 512 
gcpfactor has to 0>: 159 
compressed size: 512 
gcpfactor has to 0>: 159 
compressed size: 12 
avodiable miss
gcpfactor has to 0>: 160 
compressed size: 512 
gcpfactor has to 0>: 160 
compressed size: 252 
avodiable miss
gcpfactor has to 0>: 161 
compressed size: 512 
gcpfactor has to 0>: 161 
compressed size: 246 
gcpfactor has to 0>: 161 
compressed size: 12 
gcpfactor has to 0>: 161 
compressed size: 512 
avodiable miss
gcpfactor has to 0>: 162 
compressed size: 512 
gcpfactor has to 0>: 162 
compressed size: 512 
avodiable miss
gcpfactor has to 0>: 163 
compressed size: 512 
avodiable miss
gcpfactor has to 0>: 164 
compressed size: 512 
gcpfactor has to 0>: 164 
compressed size: 12 
gcpfactor has to 0>: 164 
compressed size: 12 
gcpfactor has to 0>: 164 
compressed size: 12 
gcpfactor has to 0>: 164 
compressed size: 12 
gcpfactor has to 0>: 164 
compressed size: 12 
gcpfactor has to 0>: 164 
compressed size: 512 
avodiable miss
gcpfactor has to 0>: 165 
compressed size: 512 
gcpfactor has to 0>: 165 
compressed size: 512 
gcpfactor has to 0>: 165 
compressed size: 512 
avodiable miss
gcpfactor has to 0>: 166 
compressed size: 512 
gcpfactor has to 0>: 166 
compressed size: 512 
avodiable miss
gcpfactor has to 0>: 167 
compressed size: 512 
gcpfactor has to 0>: 167 
compressed size: 512 
avodiable miss
gcpfactor has to 0>: 168 
compressed size: 512 
avodiable miss
gcpfactor has to 0>: 169 
compressed size: 512 
gcpfactor has to 0>: 169 
compressed size: 512 
avodiable miss
gcpfactor has to 0>: 170 
compressed size: 512 
gcpfactor has to 0>: 170 
compressed size: 512 
avodiable miss
gcpfactor has to 0>: 171 
compressed size: 512 
gcpfactor has to 0>: 171 
compressed size: 12 
gcpfactor has to 0>: 171 
compressed size: 512 
avodiable miss
gcpfactor has to 0>: 172 
compressed size: 512 
gcpfactor has to 0>: 172 
compressed size: 512 
avodiable miss
gcpfactor has to 0>: 173 
compressed size: 512 
gcpfactor has to 0>: 173 
compressed size: 512 
avodiable miss
gcpfactor has to 0>: 174 
compressed size: 512 
gcpfactor has to 0>: 174 
compressed size: 512 
gcpfactor has to 0>: 174 
compressed size: 512 
gcpfactor has to 0>: 174 
compressed size: 512 
gcpfactor has to 0>: 174 
compressed size: 512 
gcpfactor has to 0>: 174 
compressed size: 512 
gcpfactor has to 0>: 174 
compressed size: 512 
gcpfactor has to 0>: 174 
compressed size: 12 
gcpfactor has to 0>: 174 
compressed size: 512 
avodiable miss
gcpfactor has to 0>: 175 
compressed size: 512 
avodiable miss
gcpfactor has to 0>: 176 
compressed size: 12 
gcpfactor has to 0>: 176 
compressed size: 512 
gcpfactor has to 0>: 176 
compressed size: 512 
gcpfactor has to 0>: 176 
compressed size: 512 
avodiable miss
gcpfactor has to 0>: 177 
compressed size: 512 
gcpfactor has to 0>: 177 
compressed size: 512 
avodiable miss
gcpfactor has to 0>: 178 
compressed size: 512 
gcpfactor has to 0>: 178 
compressed size: 12 
gcpfactor has to 0>: 178 
compressed size: 12 
gcpfactor has to 0>: 178 
compressed size: 12 
gcpfactor has to 0>: 178 
compressed size: 512 
gcpfactor has to 0>: 178 
compressed size: 12 
gcpfactor has to 0>: 178 
compressed size: 12 
avodiable miss
gcpfactor has to 0>: 179 
compressed size: 512 
gcpfactor has to 0>: 179 
compressed size: 512 
gcpfactor has to 0>: 179 
compressed size: 512 
avodiable miss
gcpfactor has to 0>: 180 
compressed size: 512 
gcpfactor has to 0>: 180 
compressed size: 512 
gcpfactor has to 0>: 180 
compressed size: 512 
gcpfactor has to 0>: 180 
compressed size: 512 
avodiable miss
gcpfactor has to 0>: 181 
compressed size: 512 
gcpfactor has to 0>: 181 
compressed size: 512 
avodiable miss
gcpfactor has to 0>: 182 
compressed size: 512 
avodiable miss
gcpfactor has to 0>: 183 
compressed size: 512 
gcpfactor has to 0>: 183 
compressed size: 512 
avodiable miss
gcpfactor has to 0>: 184 
compressed size: 512 
gcpfactor has to 0>: 184 
compressed size: 512 
avodiable miss
gcpfactor has to 0>: 185 
compressed size: 512 
gcpfactor has to 0>: 185 
compressed size: 512 
gcpfactor has to 0>: 185 
compressed size: 512 
avodiable miss
gcpfactor has to 0>: 186 
compressed size: 512 
gcpfactor has to 0>: 186 
compressed size: 512 
gcpfactor has to 0>: 186 
compressed size: 512 
gcpfactor has to 0>: 186 
compressed size: 512 
avodiable miss
gcpfactor has to 0>: 187 
compressed size: 512 
avodiable miss
gcpfactor has to 0>: 188 
compressed size: 512 
gcpfactor has to 0>: 188 
compressed size: 512 
gcpfactor has to 0>: 188 
compressed size: 512 
avodiable miss
gcpfactor has to 0>: 189 
compressed size: 512 
gcpfactor has to 0>: 189 
compressed size: 512 
avodiable miss
gcpfactor has to 0>: 190 
compressed size: 512 
gcpfactor has to 0>: 190 
compressed size: 512 
gcpfactor has to 0>: 190 
compressed size: 512 
avodiable miss
gcpfactor has to 0>: 191 
compressed size: 512 
gcpfactor has to 0>: 191 
compressed size: 512 
gcpfactor has to 0>: 191 
compressed size: 512 
avodiable miss
gcpfactor has to 0>: 192 
compressed size: 512 
gcpfactor has to 0>: 192 
compressed size: 512 
avodiable miss
gcpfactor has to 0>: 193 
compressed size: 512 
gcpfactor has to 0>: 193 
compressed size: 512 
avodiable miss
gcpfactor has to 0>: 194 
compressed size: 512 
gcpfactor has to 0>: 194 
compressed size: 512 
gcpfactor has to 0>: 194 
compressed size: 512 
gcpfactor has to 0>: 194 
compressed size: 512 
update - gcp: 1, gcpfactor: 194, compression size: 512 
avodiable miss
gcpfactor has to 0>: 195 
compressed size: 512 
update - gcp: 1, gcpfactor: 195, compression size: 512 
gcpfactor has to 0>: 195 
compressed size: 512 
update - gcp: 1, gcpfactor: 195, compression size: 512 
avodiable miss
gcpfactor has to 0>: 196 
compressed size: 512 
avodiable miss
gcpfactor has to 0>: 197 
compressed size: 512 
gcpfactor has to 0>: 197 
compressed size: 12 
gcpfactor has to 0>: 197 
compressed size: 512 
gcpfactor has to 0>: 197 
compressed size: 512 
gcpfactor has to 0>: 197 
compressed size: 512 
avodiable miss
gcpfactor has to 0>: 198 
compressed size: 512 
gcpfactor has to 0>: 198 
compressed size: 512 
gcpfactor has to 0>: 198 
compressed size: 512 
avodiable miss
gcpfactor has to 0>: 199 
compressed size: 512 
gcpfactor has to 0>: 199 
compressed size: 512 
gcpfactor has to 0>: 199 
compressed size: 12 
gcpfactor has to 0>: 199 
compressed size: 12 
gcpfactor has to 0>: 199 
compressed size: 12 
gcpfactor has to 0>: 199 
compressed size: 512 
gcpfactor has to 0>: 199 
compressed size: 12 
avodiable miss
gcpfactor has to 0>: 200 
compressed size: 512 
gcpfactor has to 0>: 200 
compressed size: 12 
gcpfactor has to 0>: 200 
compressed size: 12 
gcpfactor has to 0>: 200 
compressed size: 512 
gcpfactor has to 0>: 200 
compressed size: 12 
gcpfactor has to 0>: 200 
compressed size: 512 
avodiable miss
gcpfactor has to 0>: 201 
compressed size: 79 
gcpfactor has to 0>: 201 
compressed size: 512 
gcpfactor has to 0>: 201 
compressed size: 512 
update - gcp: 1, gcpfactor: 201, compression size: 512 
gcpfactor has to 0>: 201 
compressed size: 512 
avodiable miss
gcpfactor has to 0>: 202 
compressed size: 512 
avodiable miss
gcpfactor has to 0>: 203 
compressed size: 512 
update - gcp: 1, gcpfactor: 203, compression size: 512 
gcpfactor has to 0>: 203 
compressed size: 512 
gcpfactor has to 0>: 203 
compressed size: 512 
update - gcp: 1, gcpfactor: 203, compression size: 512 
gcpfactor has to 0>: 203 
compressed size: 512 
update - gcp: 1, gcpfactor: 203, compression size: 512 
gcpfactor has to 0>: 203 
compressed size: 512 
update - gcp: 1, gcpfactor: 203, compression size: 512 
avodiable miss
gcpfactor has to 0>: 204 
compressed size: 12 
gcpfactor has to 0>: 204 
compressed size: 512 
update - gcp: 1, gcpfactor: 204, compression size: 512 
gcpfactor has to 0>: 204 
compressed size: 512 
update - gcp: 1, gcpfactor: 204, compression size: 512 
avodiable miss
gcpfactor has to 0>: 205 
compressed size: 512 
gcpfactor has to 0>: 205 
compressed size: 512 
gcpfactor has to 0>: 205 
compressed size: 512 
update - gcp: 1, gcpfactor: 205, compression size: 512 
avodiable miss
gcpfactor has to 0>: 206 
compressed size: 512 
update - gcp: 1, gcpfactor: 206, compression size: 512 
avodiable miss
gcpfactor has to 0>: 207 
compressed size: 512 
gcpfactor has to 0>: 207 
compressed size: 512 
update - gcp: 1, gcpfactor: 207, compression size: 512 
gcpfactor has to 0>: 207 
compressed size: 512 
update - gcp: 1, gcpfactor: 207, compression size: 512 
avodiable miss
gcpfactor has to 0>: 208 
compressed size: 512 
avodiable miss
gcpfactor has to 0>: 209 
compressed size: 512 
update - gcp: 1, gcpfactor: 209, compression size: 512 
gcpfactor has to 0>: 209 
compressed size: 512 
gcpfactor has to 0>: 209 
compressed size: 512 
avodiable miss
gcpfactor has to 0>: 210 
compressed size: 512 
gcpfactor has to 0>: 210 
compressed size: 512 
avodiable miss
gcpfactor has to 0>: 211 
compressed size: 512 
gcpfactor has to 0>: 211 
compressed size: 512 
gcpfactor has to 0>: 211 
compressed size: 512 
gcpfactor has to 0>: 211 
compressed size: 12 
avodiable miss
gcpfactor has to 0>: 212 
compressed size: 512 
gcpfactor has to 0>: 212 
compressed size: 512 
avodiable miss
gcpfactor has to 0>: 213 
compressed size: 512 
gcpfactor has to 0>: 213 
compressed size: 512 
gcpfactor has to 0>: 213 
compressed size: 512 
gcpfactor has to 0>: 213 
compressed size: 12 
avodiable miss
gcpfactor has to 0>: 214 
compressed size: 512 
gcpfactor has to 0>: 214 
compressed size: 512 
gcpfactor has to 0>: 214 
compressed size: 512 
avodiable miss
gcpfactor has to 0>: 215 
compressed size: 512 
update - gcp: 1, gcpfactor: 215, compression size: 512 
gcpfactor has to 0>: 215 
compressed size: 12 
gcpfactor has to 0>: 215 
compressed size: 512 
update - gcp: 1, gcpfactor: 215, compression size: 512 
gcpfactor has to 0>: 215 
compressed size: 12 
gcpfactor has to 0>: 215 
compressed size: 12 
gcpfactor has to 0>: 215 
compressed size: 155 
gcpfactor has to 0>: 215 
compressed size: 12 
gcpfactor has to 0>: 215 
compressed size: 12 
gcpfactor has to 0>: 215 
compressed size: 12 
avodiable miss
gcpfactor has to 0>: 216 
compressed size: 512 
avodiable miss
gcpfactor has to 0>: 217 
compressed size: 12 
gcpfactor has to 0>: 217 
compressed size: 512 
gcpfactor has to 0>: 217 
compressed size: 512 
gcpfactor has to 0>: 217 
compressed size: 512 
update - gcp: 1, gcpfactor: 217, compression size: 512 
gcpfactor has to 0>: 217 
compressed size: 512 
gcpfactor has to 0>: 217 
compressed size: 512 
avodiable miss
gcpfactor has to 0>: 218 
compressed size: 512 
gcpfactor has to 0>: 218 
compressed size: 512 
avodiable miss
gcpfactor has to 0>: 219 
compressed size: 512 
gcpfactor has to 0>: 219 
compressed size: 512 
avodiable miss
gcpfactor has to 0>: 220 
compressed size: 512 
avodiable miss
gcpfactor has to 0>: 221 
compressed size: 512 
gcpfactor has to 0>: 221 
compressed size: 512 
avodiable miss
gcpfactor has to 0>: 222 
compressed size: 512 
gcpfactor has to 0>: 222 
compressed size: 512 
gcpfactor has to 0>: 222 
compressed size: 512 
gcpfactor has to 0>: 222 
compressed size: 512 
gcpfactor has to 0>: 222 
compressed size: 512 
gcpfactor has to 0>: 222 
compressed size: 512 
avodiable miss
gcpfactor has to 0>: 223 
compressed size: 512 
gcpfactor has to 0>: 223 
compressed size: 512 
avodiable miss
gcpfactor has to 0>: 224 
compressed size: 512 
gcpfactor has to 0>: 224 
compressed size: 512 
gcpfactor has to 0>: 224 
compressed size: 512 
avodiable miss
gcpfactor has to 0>: 225 
compressed size: 512 
gcpfactor has to 0>: 225 
compressed size: 512 
gcpfactor has to 0>: 225 
compressed size: 512 
avodiable miss
gcpfactor has to 0>: 226 
compressed size: 512 
gcpfactor has to 0>: 226 
compressed size: 512 
gcpfactor has to 0>: 226 
compressed size: 512 
gcpfactor has to 0>: 226 
compressed size: 512 
gcpfactor has to 0>: 226 
compressed size: 512 
gcpfactor has to 0>: 226 
compressed size: 512 
avodiable miss
gcpfactor has to 0>: 227 
compressed size: 512 
avodiable miss
gcpfactor has to 0>: 228 
compressed size: 512 
avodiable miss
gcpfactor has to 0>: 229 
compressed size: 512 
gcpfactor has to 0>: 229 
compressed size: 512 
avodiable miss
gcpfactor has to 0>: 230 
compressed size: 512 
gcpfactor has to 0>: 230 
compressed size: 12 
gcpfactor has to 0>: 230 
compressed size: 512 
update - gcp: 1, gcpfactor: 230, compression size: 512 
avodiable miss
gcpfactor has to 0>: 231 
compressed size: 512 
gcpfactor has to 0>: 231 
compressed size: 512 
avodiable miss
gcpfactor has to 0>: 232 
compressed size: 512 
gcpfactor has to 0>: 232 
compressed size: 512 
gcpfactor has to 0>: 232 
compressed size: 512 
gcpfactor has to 0>: 232 
compressed size: 512 
gcpfactor has to 0>: 232 
compressed size: 512 
avodiable miss
gcpfactor has to 0>: 233 
compressed size: 512 
gcpfactor has to 0>: 233 
compressed size: 512 
avodiable miss
gcpfactor has to 0>: 234 
compressed size: 512 
gcpfactor has to 0>: 234 
compressed size: 512 
update - gcp: 1, gcpfactor: 234, compression size: 512 
avodiable miss
gcpfactor has to 0>: 235 
compressed size: 512 
update - gcp: 1, gcpfactor: 235, compression size: 512 
avodiable miss
gcpfactor has to 0>: 236 
compressed size: 512 
update - gcp: 1, gcpfactor: 236, compression size: 512 
gcpfactor has to 0>: 236 
compressed size: 512 
gcpfactor has to 0>: 236 
compressed size: 512 
avodiable miss
gcpfactor has to 0>: 237 
compressed size: 512 
update - gcp: 1, gcpfactor: 237, compression size: 512 
avodiable miss
gcpfactor has to 0>: 238 
compressed size: 512 
avodiable miss
gcpfactor has to 0>: 239 
compressed size: 512 
gcpfactor has to 0>: 239 
compressed size: 512 
avodiable miss
gcpfactor has to 0>: 240 
compressed size: 512 
avodiable miss
gcpfactor has to 0>: 241 
compressed size: 512 
gcpfactor has to 0>: 241 
compressed size: 512 
avodiable miss
gcpfactor has to 0>: 242 
compressed size: 512 
avodiable miss
gcpfactor has to 0>: 243 
compressed size: 512 
gcpfactor has to 0>: 243 
compressed size: 512 
avodiable miss
gcpfactor has to 0>: 244 
compressed size: 512 
update - gcp: 1, gcpfactor: 244, compression size: 512 
gcpfactor has to 0>: 244 
compressed size: 512 
update - gcp: 1, gcpfactor: 244, compression size: 512 
gcpfactor has to 0>: 244 
compressed size: 512 
update - gcp: 1, gcpfactor: 244, compression size: 512 
gcpfactor has to 0>: 244 
compressed size: 512 
update - gcp: 1, gcpfactor: 244, compression size: 512 
avodiable miss
gcpfactor has to 0>: 245 
compressed size: 512 
update - gcp: 1, gcpfactor: 245, compression size: 512 
gcpfactor has to 0>: 245 
compressed size: 512 
avodiable miss
gcpfactor has to 0>: 246 
compressed size: 512 
gcpfactor has to 0>: 246 
compressed size: 512 
gcpfactor has to 0>: 246 
compressed size: 512 
gcpfactor has to 0>: 246 
compressed size: 512 
update - gcp: 1, gcpfactor: 246, compression size: 512 
gcpfactor has to 0>: 246 
compressed size: 512 
update - gcp: 1, gcpfactor: 246, compression size: 512 
avodiable miss
gcpfactor has to 0>: 247 
compressed size: 512 
update - gcp: 1, gcpfactor: 247, compression size: 512 
gcpfactor has to 0>: 247 
compressed size: 512 
update - gcp: 1, gcpfactor: 247, compression size: 512 
gcpfactor has to 0>: 247 
compressed size: 512 
update - gcp: 1, gcpfactor: 247, compression size: 512 
gcpfactor has to 0>: 247 
compressed size: 512 
update - gcp: 1, gcpfactor: 247, compression size: 512 
avodiable miss
gcpfactor has to 0>: 248 
compressed size: 512 
update - gcp: 1, gcpfactor: 248, compression size: 512 
gcpfactor has to 0>: 248 
compressed size: 512 
update - gcp: 1, gcpfactor: 248, compression size: 512 
avodiable miss
gcpfactor has to 0>: 249 
compressed size: 512 
update - gcp: 1, gcpfactor: 249, compression size: 512 
gcpfactor has to 0>: 249 
compressed size: 512 
update - gcp: 1, gcpfactor: 249, compression size: 512 
gcpfactor has to 0>: 249 
compressed size: 512 
gcpfactor has to 0>: 249 
compressed size: 512 
avodiable miss
gcpfactor has to 0>: 250 
compressed size: 512 
avodiable miss
gcpfactor has to 0>: 251 
compressed size: 512 
gcpfactor has to 0>: 251 
compressed size: 512 
avodiable miss
gcpfactor has to 0>: 252 
compressed size: 512 
gcpfactor has to 0>: 252 
compressed size: 512 
avodiable miss
gcpfactor has to 0>: 253 
compressed size: 512 
gcpfactor has to 0>: 253 
compressed size: 512 
avodiable miss
gcpfactor has to 0>: 254 
compressed size: 512 
gcpfactor has to 0>: 254 
compressed size: 512 
update - gcp: 1, gcpfactor: 254, compression size: 512 
gcpfactor has to 0>: 254 
compressed size: 512 
avodiable miss
gcpfactor has to 0>: 255 
compressed size: 512 
gcpfactor has to 0>: 255 
compressed size: 512 
update - gcp: 1, gcpfactor: 255, compression size: 512 
avodiable miss
gcpfactor has to 0>: 256 
compressed size: 512 
update - gcp: 1, gcpfactor: 256, compression size: 512 
gcpfactor has to 0>: 256 
compressed size: 512 
update - gcp: 1, gcpfactor: 256, compression size: 512 
gcpfactor has to 0>: 256 
compressed size: 512 
update - gcp: 1, gcpfactor: 256, compression size: 512 
avodiable miss
gcpfactor has to 0>: 257 
compressed size: 512 
gcpfactor has to 0>: 257 
compressed size: 512 
update - gcp: 1, gcpfactor: 257, compression size: 512 
avodiable miss
gcpfactor has to 0>: 258 
compressed size: 512 
update - gcp: 1, gcpfactor: 258, compression size: 512 
avodiable miss
gcpfactor has to 0>: 259 
compressed size: 512 
avodiable miss
gcpfactor has to 0>: 260 
compressed size: 512 
update - gcp: 1, gcpfactor: 260, compression size: 512 
gcpfactor has to 0>: 260 
compressed size: 512 
gcpfactor has to 0>: 260 
compressed size: 512 
gcpfactor has to 0>: 260 
compressed size: 512 
update - gcp: 1, gcpfactor: 260, compression size: 512 
avodiable miss
gcpfactor has to 0>: 261 
compressed size: 512 
update - gcp: 1, gcpfactor: 261, compression size: 512 
gcpfactor has to 0>: 261 
compressed size: 512 
update - gcp: 1, gcpfactor: 261, compression size: 512 
gcpfactor has to 0>: 261 
compressed size: 512 
update - gcp: 1, gcpfactor: 261, compression size: 512 
avodiable miss
gcpfactor has to 0>: 262 
compressed size: 176 
gcpfactor has to 0>: 262 
compressed size: 512 
update - gcp: 1, gcpfactor: 262, compression size: 512 
gcpfactor has to 0>: 262 
compressed size: 512 
avodiable miss
gcpfactor has to 0>: 263 
compressed size: 512 
avodiable miss
gcpfactor has to 0>: 264 
compressed size: 512 
gcpfactor has to 0>: 264 
compressed size: 512 
avodiable miss
gcpfactor has to 0>: 265 
compressed size: 512 
gcpfactor has to 0>: 265 
compressed size: 512 
avodiable miss
gcpfactor has to 0>: 266 
compressed size: 512 
gcpfactor has to 0>: 266 
compressed size: 512 
gcpfactor has to 0>: 266 
compressed size: 512 
gcpfactor has to 0>: 266 
compressed size: 512 
avodiable miss
gcpfactor has to 0>: 267 
compressed size: 512 
avodiable miss
gcpfactor has to 0>: 268 
compressed size: 512 
gcpfactor has to 0>: 268 
compressed size: 512 
gcpfactor has to 0>: 268 
compressed size: 512 
avodiable miss
gcpfactor has to 0>: 269 
compressed size: 512 
gcpfactor has to 0>: 269 
compressed size: 512 
avodiable miss
gcpfactor has to 0>: 270 
compressed size: 512 
gcpfactor has to 0>: 270 
compressed size: 512 
avodiable miss
gcpfactor has to 0>: 271 
compressed size: 512 
avodiable miss
gcpfactor has to 0>: 272 
compressed size: 512 
gcpfactor has to 0>: 272 
compressed size: 147 
gcpfactor has to 0>: 272 
compressed size: 512 
gcpfactor has to 0>: 272 
compressed size: 512 
gcpfactor has to 0>: 272 
compressed size: 512 
gcpfactor has to 0>: 272 
compressed size: 512 
avodiable miss
gcpfactor has to 0>: 273 
compressed size: 512 
gcpfactor has to 0>: 273 
compressed size: 512 
gcpfactor has to 0>: 273 
compressed size: 512 
gcpfactor has to 0>: 273 
compressed size: 512 
avodiable miss
gcpfactor has to 0>: 274 
compressed size: 512 
gcpfactor has to 0>: 274 
compressed size: 512 
gcpfactor has to 0>: 274 
compressed size: 512 
gcpfactor has to 0>: 274 
compressed size: 512 
avodiable miss
gcpfactor has to 0>: 275 
compressed size: 512 
gcpfactor has to 0>: 275 
compressed size: 512 
avodiable miss
gcpfactor has to 0>: 276 
compressed size: 512 
gcpfactor has to 0>: 276 
compressed size: 512 
gcpfactor has to 0>: 276 
compressed size: 512 
avodiable miss
gcpfactor has to 0>: 277 
compressed size: 512 
gcpfactor has to 0>: 277 
compressed size: 512 
avodiable miss
gcpfactor has to 0>: 278 
compressed size: 512 
gcpfactor has to 0>: 278 
compressed size: 512 
avodiable miss
gcpfactor has to 0>: 279 
compressed size: 512 
gcpfactor has to 0>: 279 
compressed size: 512 
gcpfactor has to 0>: 279 
compressed size: 512 
gcpfactor has to 0>: 279 
compressed size: 512 
avodiable miss
gcpfactor has to 0>: 280 
compressed size: 512 
gcpfactor has to 0>: 280 
compressed size: 512 
avodiable miss
gcpfactor has to 0>: 281 
compressed size: 512 
gcpfactor has to 0>: 281 
compressed size: 512 
gcpfactor has to 0>: 281 
compressed size: 512 
avodiable miss
gcpfactor has to 0>: 282 
compressed size: 512 
avodiable miss
gcpfactor has to 0>: 283 
compressed size: 512 
gcpfactor has to 0>: 283 
compressed size: 512 
avodiable miss
gcpfactor has to 0>: 284 
compressed size: 512 
gcpfactor has to 0>: 284 
compressed size: 512 
avodiable miss
gcpfactor has to 0>: 285 
compressed size: 512 
gcpfactor has to 0>: 285 
compressed size: 512 
avodiable miss
gcpfactor has to 0>: 286 
compressed size: 512 
gcpfactor has to 0>: 286 
compressed size: 512 
avodiable miss
gcpfactor has to 0>: 287 
compressed size: 512 
gcpfactor has to 0>: 287 
compressed size: 512 
avodiable miss
gcpfactor has to 0>: 288 
compressed size: 512 
gcpfactor has to 0>: 288 
compressed size: 512 
avodiable miss
gcpfactor has to 0>: 289 
compressed size: 512 
gcpfactor has to 0>: 289 
compressed size: 512 
avodiable miss
gcpfactor has to 0>: 290 
compressed size: 512 
gcpfactor has to 0>: 290 
compressed size: 512 
gcpfactor has to 0>: 290 
compressed size: 512 
gcpfactor has to 0>: 290 
compressed size: 512 
avodiable miss
gcpfactor has to 0>: 291 
compressed size: 512 
gcpfactor has to 0>: 291 
compressed size: 512 
gcpfactor has to 0>: 291 
compressed size: 512 
gcpfactor has to 0>: 291 
compressed size: 512 
gcpfactor has to 0>: 291 
compressed size: 512 
gcpfactor has to 0>: 291 
compressed size: 512 
gcpfactor has to 0>: 291 
compressed size: 512 
avodiable miss
gcpfactor has to 0>: 292 
compressed size: 512 
gcpfactor has to 0>: 292 
compressed size: 512 
gcpfactor has to 0>: 292 
compressed size: 512 
avodiable miss
gcpfactor has to 0>: 293 
compressed size: 512 
gcpfactor has to 0>: 293 
compressed size: 512 
avodiable miss
gcpfactor has to 0>: 294 
compressed size: 512 
gcpfactor has to 0>: 294 
compressed size: 512 
avodiable miss
gcpfactor has to 0>: 295 
compressed size: 512 
gcpfactor has to 0>: 295 
compressed size: 139 
gcpfactor has to 0>: 295 
compressed size: 143 
gcpfactor has to 0>: 295 
compressed size: 512 
avodiable miss
gcpfactor has to 0>: 296 
compressed size: 512 
avodiable miss
gcpfactor has to 0>: 297 
compressed size: 512 
gcpfactor has to 0>: 297 
compressed size: 512 
avodiable miss
gcpfactor has to 0>: 298 
compressed size: 512 
gcpfactor has to 0>: 298 
compressed size: 512 
gcpfactor has to 0>: 298 
compressed size: 512 
gcpfactor has to 0>: 298 
compressed size: 512 
avodiable miss
gcpfactor has to 0>: 299 
compressed size: 512 
avodiable miss
gcpfactor has to 0>: 300 
compressed size: 512 
gcpfactor has to 0>: 300 
compressed size: 512 
gcpfactor has to 0>: 300 
compressed size: 512 
avodiable miss
gcpfactor has to 0>: 301 
compressed size: 512 
gcpfactor has to 0>: 301 
compressed size: 512 
avodiable miss
gcpfactor has to 0>: 302 
compressed size: 512 
gcpfactor has to 0>: 302 
compressed size: 512 
avodiable miss
gcpfactor has to 0>: 303 
compressed size: 512 
gcpfactor has to 0>: 303 
compressed size: 512 
avodiable miss
gcpfactor has to 0>: 304 
compressed size: 512 
gcpfactor has to 0>: 304 
compressed size: 512 
avodiable miss
gcpfactor has to 0>: 305 
compressed size: 512 
gcpfactor has to 0>: 305 
compressed size: 512 
gcpfactor has to 0>: 305 
compressed size: 512 
gcpfactor has to 0>: 305 
compressed size: 512 
avodiable miss
gcpfactor has to 0>: 306 
compressed size: 512 
avodiable miss
gcpfactor has to 0>: 307 
compressed size: 512 
avodiable miss
gcpfactor has to 0>: 308 
compressed size: 512 
gcpfactor has to 0>: 308 
compressed size: 512 
avodiable miss
gcpfactor has to 0>: 309 
compressed size: 512 
gcpfactor has to 0>: 309 
compressed size: 512 
gcpfactor has to 0>: 309 
compressed size: 512 
gcpfactor has to 0>: 309 
compressed size: 512 
gcpfactor has to 0>: 309 
compressed size: 512 
avodiable miss
gcpfactor has to 0>: 310 
compressed size: 512 
gcpfactor has to 0>: 310 
compressed size: 12 
gcpfactor has to 0>: 310 
compressed size: 512 
update - gcp: 1, gcpfactor: 310, compression size: 512 
avodiable miss
gcpfactor has to 0>: 311 
compressed size: 512 
gcpfactor has to 0>: 311 
compressed size: 512 
update - gcp: 1, gcpfactor: 311, compression size: 512 
gcpfactor has to 0>: 311 
compressed size: 512 
avodiable miss
gcpfactor has to 0>: 312 
compressed size: 512 
gcpfactor has to 0>: 312 
compressed size: 512 
gcpfactor has to 0>: 312 
compressed size: 512 
avodiable miss
gcpfactor has to 0>: 313 
compressed size: 512 
gcpfactor has to 0>: 313 
compressed size: 512 
update - gcp: 1, gcpfactor: 313, compression size: 512 
gcpfactor has to 0>: 313 
compressed size: 512 
update - gcp: 1, gcpfactor: 313, compression size: 512 
gcpfactor has to 0>: 313 
compressed size: 512 
avodiable miss
gcpfactor has to 0>: 314 
compressed size: 512 
avodiable miss
gcpfactor has to 0>: 315 
compressed size: 512 
update - gcp: 1, gcpfactor: 315, compression size: 512 
gcpfactor has to 0>: 315 
compressed size: 512 
avodiable miss
gcpfactor has to 0>: 316 
compressed size: 512 
gcpfactor has to 0>: 316 
compressed size: 512 
avodiable miss
gcpfactor has to 0>: 317 
compressed size: 512 
gcpfactor has to 0>: 317 
compressed size: 512 
avodiable miss
gcpfactor has to 0>: 318 
compressed size: 512 
gcpfactor has to 0>: 318 
compressed size: 512 
gcpfactor has to 0>: 318 
compressed size: 512 
update - gcp: 1, gcpfactor: 318, compression size: 512 
avodiable miss
gcpfactor has to 0>: 319 
compressed size: 512 
update - gcp: 1, gcpfactor: 319, compression size: 512 
avodiable miss
gcpfactor has to 0>: 320 
compressed size: 512 
gcpfactor has to 0>: 320 
compressed size: 512 
gcpfactor has to 0>: 320 
compressed size: 512 
gcpfactor has to 0>: 320 
compressed size: 512 
gcpfactor has to 0>: 320 
compressed size: 512 
update - gcp: 1, gcpfactor: 320, compression size: 512 
avodiable miss
gcpfactor has to 0>: 321 
compressed size: 512 
update - gcp: 1, gcpfactor: 321, compression size: 512 
gcpfactor has to 0>: 321 
compressed size: 512 
update - gcp: 1, gcpfactor: 321, compression size: 512 
avodiable miss
gcpfactor has to 0>: 322 
compressed size: 512 
gcpfactor has to 0>: 322 
compressed size: 512 
update - gcp: 1, gcpfactor: 322, compression size: 512 
avodiable miss
gcpfactor has to 0>: 323 
compressed size: 512 
update - gcp: 1, gcpfactor: 323, compression size: 512 
gcpfactor has to 0>: 323 
compressed size: 512 
update - gcp: 1, gcpfactor: 323, compression size: 512 
avodiable miss
gcpfactor has to 0>: 324 
compressed size: 512 
update - gcp: 1, gcpfactor: 324, compression size: 512 
gcpfactor has to 0>: 324 
compressed size: 512 
avodiable miss
gcpfactor has to 0>: 325 
compressed size: 512 
gcpfactor has to 0>: 325 
compressed size: 512 
avodiable miss
gcpfactor has to 0>: 326 
compressed size: 512 
gcpfactor has to 0>: 326 
compressed size: 512 
update - gcp: 1, gcpfactor: 326, compression size: 512 
avodiable miss
gcpfactor has to 0>: 327 
compressed size: 512 
update - gcp: 1, gcpfactor: 327, compression size: 512 
gcpfactor has to 0>: 327 
compressed size: 512 
update - gcp: 1, gcpfactor: 327, compression size: 512 
avodiable miss
gcpfactor has to 0>: 328 
compressed size: 512 
gcpfactor has to 0>: 328 
compressed size: 512 
avodiable miss
gcpfactor has to 0>: 329 
compressed size: 512 
gcpfactor has to 0>: 329 
compressed size: 512 
avodiable miss
gcpfactor has to 0>: 330 
compressed size: 512 
gcpfactor has to 0>: 330 
compressed size: 512 
gcpfactor has to 0>: 330 
compressed size: 512 
gcpfactor has to 0>: 330 
compressed size: 512 
gcpfactor has to 0>: 330 
compressed size: 512 
avodiable miss
gcpfactor has to 0>: 331 
compressed size: 512 
avodiable miss
gcpfactor has to 0>: 332 
compressed size: 512 
gcpfactor has to 0>: 332 
compressed size: 512 
gcpfactor has to 0>: 332 
compressed size: 512 
update - gcp: 1, gcpfactor: 332, compression size: 512 
avodiable miss
gcpfactor has to 0>: 333 
compressed size: 512 
update - gcp: 1, gcpfactor: 333, compression size: 512 
gcpfactor has to 0>: 333 
compressed size: 512 
update - gcp: 1, gcpfactor: 333, compression size: 512 
avodiable miss
gcpfactor has to 0>: 334 
compressed size: 512 
update - gcp: 1, gcpfactor: 334, compression size: 512 
update - gcp: 1, gcpfactor: 334, compression size: 512 
update - gcp: 1, gcpfactor: 334, compression size: 512 
update - gcp: 1, gcpfactor: 334, compression size: 512 
gcpfactor has to 0>: 334 
compressed size: 12 
gcpfactor has to 0>: 334 
compressed size: 512 
gcpfactor has to 0>: 334 
compressed size: 512 
update - gcp: 1, gcpfactor: 334, compression size: 512 
gcpfactor has to 0>: 334 
compressed size: 512 
avodiable miss
gcpfactor has to 0>: 335 
compressed size: 512 
gcpfactor has to 0>: 335 
compressed size: 512 
update - gcp: 1, gcpfactor: 335, compression size: 512 
update - gcp: 1, gcpfactor: 335, compression size: 512 
update - gcp: 1, gcpfactor: 335, compression size: 512 
avodiable miss
avodiable miss
gcpfactor has to 0>: 337 
compressed size: 512 
gcpfactor has to 0>: 337 
compressed size: 512 
gcpfactor has to 0>: 337 
compressed size: 12 
gcpfactor has to 0>: 337 
compressed size: 512 
gcpfactor has to 0>: 337 
compressed size: 512 
avodiable miss
gcpfactor has to 0>: 338 
compressed size: 512 
avodiable miss
gcpfactor has to 0>: 339 
compressed size: 512 
gcpfactor has to 0>: 339 
compressed size: 512 
gcpfactor has to 0>: 339 
compressed size: 12 
gcpfactor has to 0>: 339 
compressed size: 512 
update - gcp: 1, gcpfactor: 339, compression size: 512 
avodiable miss
gcpfactor has to 0>: 340 
compressed size: 512 
gcpfactor has to 0>: 340 
compressed size: 12 
update - gcp: 1, gcpfactor: 340, compression size: 512 
gcpfactor has to 0>: 340 
compressed size: 512 
update - gcp: 1, gcpfactor: 340, compression size: 512 
gcpfactor has to 0>: 340 
compressed size: 512 
avodiable miss
avodiable miss
gcpfactor has to 0>: 342 
compressed size: 512 
gcpfactor has to 0>: 342 
compressed size: 512 
update - gcp: 1, gcpfactor: 342, compression size: 512 
gcpfactor has to 0>: 342 
compressed size: 512 
update - gcp: 1, gcpfactor: 342, compression size: 512 
gcpfactor has to 0>: 342 
compressed size: 512 
update - gcp: 1, gcpfactor: 342, compression size: 512 
avodiable miss
gcpfactor has to 0>: 343 
compressed size: 512 
gcpfactor has to 0>: 343 
compressed size: 512 
avodiable miss
gcpfactor has to 0>: 344 
compressed size: 512 
avodiable miss
gcpfactor has to 0>: 345 
compressed size: 512 
gcpfactor has to 0>: 345 
compressed size: 512 
avodiable miss
gcpfactor has to 0>: 346 
compressed size: 512 
gcpfactor has to 0>: 346 
compressed size: 512 
avodiable miss
gcpfactor has to 0>: 347 
compressed size: 512 
gcpfactor has to 0>: 347 
compressed size: 512 
avodiable miss
gcpfactor has to 0>: 348 
compressed size: 512 
gcpfactor has to 0>: 348 
compressed size: 512 
gcpfactor has to 0>: 348 
compressed size: 512 
gcpfactor has to 0>: 348 
compressed size: 512 
avodiable miss
gcpfactor has to 0>: 349 
compressed size: 512 
gcpfactor has to 0>: 349 
compressed size: 512 
avodiable miss
gcpfactor has to 0>: 350 
compressed size: 512 
gcpfactor has to 0>: 350 
compressed size: 12 
gcpfactor has to 0>: 350 
compressed size: 512 
update - gcp: 1, gcpfactor: 350, compression size: 512 
avodiable miss
gcpfactor has to 0>: 351 
compressed size: 512 
update - gcp: 1, gcpfactor: 351, compression size: 512 
avodiable miss
gcpfactor has to 0>: 352 
compressed size: 512 
update - gcp: 1, gcpfactor: 352, compression size: 512 
gcpfactor has to 0>: 352 
compressed size: 512 
avodiable miss
gcpfactor has to 0>: 353 
compressed size: 512 
gcpfactor has to 0>: 353 
compressed size: 512 
avodiable miss
gcpfactor has to 0>: 354 
compressed size: 512 
gcpfactor has to 0>: 354 
compressed size: 512 
avodiable miss
gcpfactor has to 0>: 355 
compressed size: 512 
gcpfactor has to 0>: 355 
compressed size: 512 
update - gcp: 1, gcpfactor: 355, compression size: 512 
avodiable miss
gcpfactor has to 0>: 356 
compressed size: 512 
gcpfactor has to 0>: 356 
compressed size: 512 
avodiable miss
gcpfactor has to 0>: 357 
compressed size: 512 
update - gcp: 1, gcpfactor: 357, compression size: 512 
gcpfactor has to 0>: 357 
compressed size: 512 
gcpfactor has to 0>: 357 
compressed size: 512 
avodiable miss
gcpfactor has to 0>: 358 
compressed size: 512 
gcpfactor has to 0>: 358 
compressed size: 12 
gcpfactor has to 0>: 358 
compressed size: 12 
gcpfactor has to 0>: 358 
compressed size: 12 
gcpfactor has to 0>: 358 
compressed size: 12 
gcpfactor has to 0>: 358 
compressed size: 512 
gcpfactor has to 0>: 358 
compressed size: 512 
update - gcp: 1, gcpfactor: 358, compression size: 512 
gcpfactor has to 0>: 358 
compressed size: 12 
avodiable miss
gcpfactor has to 0>: 359 
compressed size: 512 
update - gcp: 1, gcpfactor: 359, compression size: 512 
avoided miss
update - gcp: 1, gcpfactor: 360, compression size: 93 
avoided miss
update - gcp: 1, gcpfactor: 361, compression size: 40 
penalized hit
avodiable miss
avodiable miss
penalized hit
update - gcp: 1, gcpfactor: 361, compression size: 115 
avoided miss
avoided miss
penalized hit
avoided miss
avoided miss
penalized hit
update - gcp: 1, gcpfactor: 363, compression size: 147 
penalized hit
avodiable miss
avodiable miss
avodiable miss
avodiable miss
avodiable miss
avodiable miss
avodiable miss
avodiable miss
avodiable miss
avodiable miss
avodiable miss
avodiable miss
avodiable miss
avodiable miss
avodiable miss
avodiable miss
avodiable miss
avodiable miss
avodiable miss
avodiable miss
avodiable miss
avodiable miss
avodiable miss
avodiable miss
avodiable miss
avodiable miss
avodiable miss
avodiable miss
avodiable miss
avodiable miss
avodiable miss
avodiable miss
avodiable miss
avodiable miss
avodiable miss
avodiable miss
avodiable miss
avodiable miss
avodiable miss
avodiable miss
avodiable miss
avodiable miss
avodiable miss
avodiable miss
avodiable miss
avodiable miss
avodiable miss
avodiable miss
avodiable miss
avodiable miss
avodiable miss
avodiable miss
avodiable miss
penalized hit
avoided miss
avoided miss
avodiable miss
avodiable miss
avoided miss
update - gcp: 1, gcpfactor: 419, compression size: 66 
avoided miss
update - gcp: 1, gcpfactor: 420, compression size: 70 
avodiable miss
avodiable miss
avodiable miss
avodiable miss
avodiable miss
avodiable miss
avodiable miss
avodiable miss
avodiable miss
avodiable miss
avoided miss
update - gcp: 1, gcpfactor: 431, compression size: 58 
avodiable miss
avodiable miss
avodiable miss
avodiable miss
avodiable miss
avodiable miss
avodiable miss
avodiable miss
avodiable miss
avodiable miss
avodiable miss
avodiable miss
avodiable miss
avodiable miss
avodiable miss
avodiable miss
avodiable miss
avodiable miss
avodiable miss
avodiable miss
avodiable miss
avodiable miss
avodiable miss
avodiable miss
avodiable miss
avodiable miss
avodiable miss
avodiable miss
avodiable miss
avodiable miss
avodiable miss
avodiable miss
avodiable miss
avodiable miss
avodiable miss
avodiable miss
avodiable miss
avodiable miss
avodiable miss
avodiable miss
avodiable miss
avodiable miss
avodiable miss
avodiable miss
avodiable miss
avodiable miss
avodiable miss
avodiable miss
avodiable miss
avodiable miss
avodiable miss
avodiable miss
avodiable miss
avodiable miss
avodiable miss
avodiable miss
avodiable miss
avodiable miss
avodiable miss
penalized hit
update - gcp: 1, gcpfactor: 489, compression size: 82 
avodiable miss
avodiable miss
avodiable miss
avodiable miss
avodiable miss
avodiable miss
avodiable miss
avodiable miss
avodiable miss
avodiable miss
avodiable miss
avodiable miss
avodiable miss
avodiable miss
avodiable miss
avodiable miss
avodiable miss
avodiable miss
avodiable miss
avodiable miss
avodiable miss
avodiable miss
avodiable miss
avodiable miss
avodiable miss
avodiable miss
avoided miss
update - gcp: 1, gcpfactor: 516, compression size: 512 
penalized hit
update - gcp: 1, gcpfactor: 515, compression size: 188 
avoided miss
update - gcp: 1, gcpfactor: 516, compression size: 205 
avoided miss
update - gcp: 1, gcpfactor: 517, compression size: 213 
avoided miss
update - gcp: 1, gcpfactor: 518, compression size: 212 
avoided miss
update - gcp: 1, gcpfactor: 519, compression size: 211 
avoided miss
update - gcp: 1, gcpfactor: 520, compression size: 183 
avoided miss
update - gcp: 1, gcpfactor: 521, compression size: 512 
avoided miss
update - gcp: 1, gcpfactor: 522, compression size: 152 
avoided miss
update - gcp: 1, gcpfactor: 523, compression size: 512 
avoided miss
update - gcp: 1, gcpfactor: 524, compression size: 191 
avoided miss
update - gcp: 1, gcpfactor: 525, compression size: 194 
penalized hit
update - gcp: 1, gcpfactor: 524, compression size: 248 
penalized hit
penalized hit
update - gcp: 1, gcpfactor: 522, compression size: 104 
penalized hit
update - gcp: 1, gcpfactor: 521, compression size: 129 
avodiable miss
avoided miss
update - gcp: 1, gcpfactor: 523, compression size: 246 
avodiable miss
avodiable miss
avoided miss
update - gcp: 1, gcpfactor: 526, compression size: 239 
avodiable miss
avodiable miss
avoided miss
update - gcp: 1, gcpfactor: 529, compression size: 512 
penalized hit
update - gcp: 1, gcpfactor: 528, compression size: 512 
avodiable miss
avoided miss
update - gcp: 1, gcpfactor: 530, compression size: 187 
avoided miss
update - gcp: 1, gcpfactor: 531, compression size: 166 
avodiable miss
avodiable miss
avoided miss
update - gcp: 1, gcpfactor: 534, compression size: 512 
penalized hit
update - gcp: 1, gcpfactor: 533, compression size: 512 
avodiable miss
avodiable miss
avoided miss
update - gcp: 1, gcpfactor: 536, compression size: 210 
avoided miss
update - gcp: 1, gcpfactor: 537, compression size: 512 
avodiable miss
avodiable miss
avoided miss
update - gcp: 1, gcpfactor: 540, compression size: 512 
penalized hit
update - gcp: 1, gcpfactor: 539, compression size: 149 
avodiable miss
penalized hit
avoided miss
avodiable miss
avoided miss
penalized hit
update - gcp: 1, gcpfactor: 541, compression size: 88 
avoided miss
avoided miss
avoided miss
avoided miss
avodiable miss
penalized hit
update - gcp: 1, gcpfactor: 545, compression size: 181 
avodiable miss
avodiable miss
avoided miss
update - gcp: 1, gcpfactor: 548, compression size: 188 
avodiable miss
avoided miss
update - gcp: 1, gcpfactor: 550, compression size: 213 
avodiable miss
penalized hit
penalized hit
penalized hit
update - gcp: 1, gcpfactor: 548, compression size: 53 
gcpfactor has to 0>: 548 
compressed size: 12 
avoided miss
update - gcp: 1, gcpfactor: 549, compression size: 512 
penalized hit
update - gcp: 1, gcpfactor: 548, compression size: 211 
avoided miss
update - gcp: 1, gcpfactor: 549, compression size: 136 
avoided miss
update - gcp: 1, gcpfactor: 550, compression size: 105 
avoided miss
update - gcp: 1, gcpfactor: 551, compression size: 512 
avodiable miss
avodiable miss
avodiable miss
avodiable miss
avodiable miss
avodiable miss
avodiable miss
penalized hit
update - gcp: 1, gcpfactor: 557, compression size: 133 
avodiable miss
penalized hit
update - gcp: 1, gcpfactor: 557, compression size: 67 
avodiable miss
penalized hit
update - gcp: 1, gcpfactor: 557, compression size: 70 
avoided miss
update - gcp: 1, gcpfactor: 558, compression size: 64 
avoided miss
update - gcp: 1, gcpfactor: 559, compression size: 52 
penalized hit
penalized hit
update - gcp: 1, gcpfactor: 557, compression size: 156 
penalized hit
penalized hit
avodiable miss
penalized hit
avodiable miss
avodiable miss
penalized hit
update - gcp: 1, gcpfactor: 556, compression size: 67 
avoided miss
update - gcp: 1, gcpfactor: 557, compression size: 248 
avoided miss
update - gcp: 1, gcpfactor: 558, compression size: 237 
avoided miss
update - gcp: 1, gcpfactor: 559, compression size: 104 
avoided miss
update - gcp: 1, gcpfactor: 560, compression size: 12 
avoided miss
update - gcp: 1, gcpfactor: 561, compression size: 151 
avoided miss
update - gcp: 1, gcpfactor: 562, compression size: 216 
penalized hit
update - gcp: 1, gcpfactor: 561, compression size: 66 
avodiable miss
avoided miss
update - gcp: 1, gcpfactor: 563, compression size: 37 
avodiable miss
avoided miss
update - gcp: 1, gcpfactor: 565, compression size: 512 
avodiable miss
avodiable miss
penalized hit
avodiable miss
penalized hit
avodiable miss
avodiable miss
avodiable miss
avodiable miss
avodiable miss
avodiable miss
avodiable miss
avodiable miss
avodiable miss
avodiable miss
avodiable miss
avodiable miss
avodiable miss
avodiable miss
avodiable miss
avodiable miss
avodiable miss
avodiable miss
avodiable miss
avodiable miss
avoided miss
update - gcp: 1, gcpfactor: 587, compression size: 12 
avoided miss
update - gcp: 1, gcpfactor: 588, compression size: 129 
penalized hit
update - gcp: 1, gcpfactor: 587, compression size: 78 
avoided miss
update - gcp: 1, gcpfactor: 588, compression size: 53 
avoided miss
update - gcp: 1, gcpfactor: 589, compression size: 115 
avoided miss
update - gcp: 1, gcpfactor: 590, compression size: 60 
avoided miss
update - gcp: 1, gcpfactor: 591, compression size: 12 
penalized hit
update - gcp: 1, gcpfactor: 590, compression size: 12 
penalized hit
update - gcp: 1, gcpfactor: 589, compression size: 78 
update - gcp: 1, gcpfactor: 589, compression size: 512 
update - gcp: 1, gcpfactor: 589, compression size: 512 
update - gcp: 1, gcpfactor: 589, compression size: 512 
update - gcp: 1, gcpfactor: 589, compression size: 203 
update - gcp: 1, gcpfactor: 589, compression size: 512 
avoided miss
avoided miss
update - gcp: 1, gcpfactor: 591, compression size: 73 
penalized hit
avodiable miss
avodiable miss
avodiable miss
avodiable miss
avodiable miss
avodiable miss
penalized hit
update - gcp: 1, gcpfactor: 595, compression size: 12 
avodiable miss
avoided miss
update - gcp: 1, gcpfactor: 597, compression size: 37 
avoided miss
avoided miss
update - gcp: 1, gcpfactor: 599, compression size: 64 
avoided miss
update - gcp: 1, gcpfactor: 600, compression size: 70 
penalized hit
penalized hit
update - gcp: 1, gcpfactor: 598, compression size: 70 
avodiable miss
avodiable miss
avoided miss
update - gcp: 1, gcpfactor: 601, compression size: 67 
avodiable miss
avodiable miss
penalized hit
avodiable miss
penalized hit
update - gcp: 1, gcpfactor: 602, compression size: 53 
penalized hit
update - gcp: 1, gcpfactor: 601, compression size: 67 
avoided miss
update - gcp: 1, gcpfactor: 602, compression size: 149 
avoided miss
update - gcp: 1, gcpfactor: 603, compression size: 111 
avoided miss
update - gcp: 1, gcpfactor: 604, compression size: 103 
avoided miss
update - gcp: 1, gcpfactor: 605, compression size: 114 
penalized hit
update - gcp: 1, gcpfactor: 604, compression size: 64 
penalized hit
avodiable miss
avodiable miss
avodiable miss
avodiable miss
avodiable miss
avodiable miss
avodiable miss
avodiable miss
avodiable miss
penalized hit
update - gcp: 1, gcpfactor: 611, compression size: 159 
avoided miss
update - gcp: 1, gcpfactor: 612, compression size: 512 
penalized hit
update - gcp: 1, gcpfactor: 611, compression size: 248 
avoided miss
update - gcp: 1, gcpfactor: 612, compression size: 142 
avoided miss
update - gcp: 1, gcpfactor: 613, compression size: 512 
avoided miss
update - gcp: 1, gcpfactor: 614, compression size: 183 
avoided miss
update - gcp: 1, gcpfactor: 615, compression size: 126 
avoided miss
update - gcp: 1, gcpfactor: 616, compression size: 242 
avoided miss
update - gcp: 1, gcpfactor: 617, compression size: 512 
avoided miss
update - gcp: 1, gcpfactor: 618, compression size: 208 
avoided miss
update - gcp: 1, gcpfactor: 619, compression size: 512 
avoided miss
update - gcp: 1, gcpfactor: 620, compression size: 232 
avoided miss
update - gcp: 1, gcpfactor: 621, compression size: 203 
avoided miss
update - gcp: 1, gcpfactor: 622, compression size: 512 
penalized hit
update - gcp: 1, gcpfactor: 621, compression size: 512 
avoided miss
update - gcp: 1, gcpfactor: 622, compression size: 184 
avoided miss
update - gcp: 1, gcpfactor: 623, compression size: 12 
avodiable miss
avoided miss
update - gcp: 1, gcpfactor: 625, compression size: 158 
avoided miss
update - gcp: 1, gcpfactor: 626, compression size: 212 
avodiable miss
avoided miss
update - gcp: 1, gcpfactor: 628, compression size: 205 
avoided miss
update - gcp: 1, gcpfactor: 629, compression size: 12 
avodiable miss
avoided miss
update - gcp: 1, gcpfactor: 631, compression size: 117 
avoided miss
avoided miss
avoided miss
avoided miss
avoided miss
avodiable miss
penalized hit
avodiable miss
avodiable miss
avodiable miss
avodiable miss
penalized hit
penalized hit
update - gcp: 1, gcpfactor: 638, compression size: 58 
avodiable miss
avodiable miss
penalized hit
penalized hit
avoided miss
update - gcp: 1, gcpfactor: 639, compression size: 205 
avoided miss
update - gcp: 1, gcpfactor: 640, compression size: 211 
penalized hit
avoided miss
update - gcp: 1, gcpfactor: 640, compression size: 37 
avoided miss
update - gcp: 1, gcpfactor: 641, compression size: 37 
avoided miss
update - gcp: 1, gcpfactor: 642, compression size: 53 
avoided miss
update - gcp: 1, gcpfactor: 643, compression size: 12 
gcpfactor has to 0>: 643 
compressed size: 12 
gcpfactor has to 0>: 643 
compressed size: 12 
gcpfactor has to 0>: 643 
compressed size: 12 
gcpfactor has to 0>: 643 
compressed size: 12 
gcpfactor has to 0>: 643 
compressed size: 12 
gcpfactor has to 0>: 643 
compressed size: 12 
avodiable miss
gcpfactor has to 0>: 644 
compressed size: 12 
gcpfactor has to 0>: 644 
compressed size: 12 
avodiable miss
avodiable miss
gcpfactor has to 0>: 646 
compressed size: 12 
gcpfactor has to 0>: 646 
compressed size: 12 
avodiable miss
gcpfactor has to 0>: 647 
compressed size: 12 
gcpfactor has to 0>: 647 
compressed size: 12 
gcpfactor has to 0>: 647 
compressed size: 12 
gcpfactor has to 0>: 647 
compressed size: 12 
gcpfactor has to 0>: 647 
compressed size: 12 
gcpfactor has to 0>: 647 
compressed size: 12 
gcpfactor has to 0>: 647 
compressed size: 12 
gcpfactor has to 0>: 647 
compressed size: 12 
gcpfactor has to 0>: 647 
compressed size: 12 
gcpfactor has to 0>: 647 
compressed size: 12 
gcpfactor has to 0>: 647 
compressed size: 12 
gcpfactor has to 0>: 647 
compressed size: 12 
avodiable miss
gcpfactor has to 0>: 648 
compressed size: 12 
gcpfactor has to 0>: 648 
compressed size: 12 
avodiable miss
avodiable miss
avodiable miss
gcpfactor has to 0>: 651 
compressed size: 12 
avodiable miss
gcpfactor has to 0>: 652 
compressed size: 12 
avodiable miss
gcpfactor has to 0>: 653 
compressed size: 12 
gcpfactor has to 0>: 653 
compressed size: 12 
avodiable miss
gcpfactor has to 0>: 654 
compressed size: 12 
gcpfactor has to 0>: 654 
compressed size: 12 
avodiable miss
gcpfactor has to 0>: 655 
compressed size: 12 
gcpfactor has to 0>: 655 
compressed size: 12 
avodiable miss
avodiable miss
gcpfactor has to 0>: 657 
compressed size: 12 
gcpfactor has to 0>: 657 
compressed size: 12 
avodiable miss
gcpfactor has to 0>: 658 
compressed size: 12 
gcpfactor has to 0>: 658 
compressed size: 12 
avodiable miss
gcpfactor has to 0>: 659 
compressed size: 12 
gcpfactor has to 0>: 659 
compressed size: 12 
gcpfactor has to 0>: 659 
compressed size: 12 
gcpfactor has to 0>: 659 
compressed size: 12 
gcpfactor has to 0>: 659 
compressed size: 12 
gcpfactor has to 0>: 659 
compressed size: 12 
gcpfactor has to 0>: 659 
compressed size: 12 
gcpfactor has to 0>: 659 
compressed size: 12 
gcpfactor has to 0>: 659 
compressed size: 12 
gcpfactor has to 0>: 659 
compressed size: 12 
avodiable miss
gcpfactor has to 0>: 660 
compressed size: 12 
gcpfactor has to 0>: 660 
compressed size: 12 
avodiable miss
avodiable miss
avodiable miss
gcpfactor has to 0>: 663 
compressed size: 12 
avodiable miss
gcpfactor has to 0>: 664 
compressed size: 12 
avodiable miss
avodiable miss
avodiable miss
gcpfactor has to 0>: 667 
compressed size: 12 
avodiable miss
gcpfactor has to 0>: 668 
compressed size: 12 
avodiable miss
avodiable miss
avodiable miss
gcpfactor has to 0>: 671 
compressed size: 12 
avodiable miss
gcpfactor has to 0>: 672 
compressed size: 12 
avodiable miss
avodiable miss
avodiable miss
gcpfactor has to 0>: 675 
compressed size: 12 
avodiable miss
gcpfactor has to 0>: 676 
compressed size: 12 
avodiable miss
avodiable miss
avodiable miss
gcpfactor has to 0>: 679 
compressed size: 12 
avodiable miss
gcpfactor has to 0>: 680 
compressed size: 12 
avodiable miss
avodiable miss
avodiable miss
gcpfactor has to 0>: 683 
compressed size: 12 
avodiable miss
gcpfactor has to 0>: 684 
compressed size: 12 
avodiable miss
avodiable miss
avodiable miss
gcpfactor has to 0>: 687 
compressed size: 12 
avodiable miss
gcpfactor has to 0>: 688 
compressed size: 12 
avodiable miss
avodiable miss
update - gcp: 1, gcpfactor: 690, compression size: 512 
gcpfactor has to 0>: 690 
compressed size: 12 
avodiable miss
penalized hit
update - gcp: 1, gcpfactor: 690, compression size: 230 
gcpfactor has to 0>: 690 
compressed size: 12 
avodiable miss
gcpfactor has to 0>: 691 
compressed size: 53 
gcpfactor has to 0>: 691 
compressed size: 12 
gcpfactor has to 0>: 691 
compressed size: 12 
avoided miss
update - gcp: 1, gcpfactor: 692, compression size: 12 
avoided miss
update - gcp: 1, gcpfactor: 693, compression size: 95 
avoided miss
update - gcp: 1, gcpfactor: 694, compression size: 224 
avoided miss
update - gcp: 1, gcpfactor: 695, compression size: 512 
penalized hit
update - gcp: 1, gcpfactor: 694, compression size: 115 
avoided miss
avoided miss
update - gcp: 1, gcpfactor: 696, compression size: 60 
penalized hit
update - gcp: 1, gcpfactor: 695, compression size: 94 
avodiable miss
avodiable miss
avodiable miss
avodiable miss
avodiable miss
avodiable miss
avoided miss
avodiable miss
avodiable miss
avoided miss
update - gcp: 1, gcpfactor: 705, compression size: 172 
avodiable miss
avodiable miss
avoided miss
update - gcp: 1, gcpfactor: 708, compression size: 178 
avoided miss
update - gcp: 1, gcpfactor: 709, compression size: 12 
avodiable miss
avodiable miss
avoided miss
update - gcp: 1, gcpfactor: 712, compression size: 170 
avoided miss
update - gcp: 1, gcpfactor: 713, compression size: 512 
avodiable miss
avoided miss
update - gcp: 1, gcpfactor: 715, compression size: 512 
penalized hit
update - gcp: 1, gcpfactor: 714, compression size: 512 
avoided miss
update - gcp: 1, gcpfactor: 715, compression size: 512 
penalized hit
update - gcp: 1, gcpfactor: 714, compression size: 512 
avoided miss
update - gcp: 1, gcpfactor: 715, compression size: 512 
penalized hit
update - gcp: 1, gcpfactor: 714, compression size: 512 
avodiable miss
avoided miss
update - gcp: 1, gcpfactor: 716, compression size: 512 
penalized hit
update - gcp: 1, gcpfactor: 715, compression size: 512 
avodiable miss
avodiable miss
avoided miss
update - gcp: 1, gcpfactor: 718, compression size: 512 
penalized hit
update - gcp: 1, gcpfactor: 717, compression size: 512 
avodiable miss
avodiable miss
avoided miss
update - gcp: 1, gcpfactor: 720, compression size: 512 
penalized hit
update - gcp: 1, gcpfactor: 719, compression size: 512 
avodiable miss
avodiable miss
avoided miss
update - gcp: 1, gcpfactor: 722, compression size: 512 
penalized hit
[...]
update - gcp: 1, gcpfactor: 20711, compression size: 512 
update - gcp: 1, gcpfactor: 20711, compression size: 512 
update - gcp: 1, gcpfactor: 20711, compression size: 512 
update - gcp: 1, gcpfactor: 20711, compression size: 512 
update - gcp: 1, gcpfactor: 20711, compression size: 512 
update - gcp: 1, gcpfactor: 20711, compression size: 512 
update - gcp: 1, gcpfactor: 20711, compression size: 512 
update - gcp: 1, gcpfactor: 20711, compression size: 512 
update - gcp: 1, gcpfactor: 20711, compression size: 512 
update - gcp: 1, gcpfactor: 20711, compression size: 512 
update - gcp: 1, gcpfactor: 20711, compression size: 512 
update - gcp: 1, gcpfactor: 20711, compression size: 512 
update - gcp: 1, gcpfactor: 20711, compression size: 512 
update - gcp: 1, gcpfactor: 20711, compression size: 512 
update - gcp: 1, gcpfactor: 20711, compression size: 512 
update - gcp: 1, gcpfactor: 20711, compression size: 512 
update - gcp: 1, gcpfactor: 20711, compression size: 512 
update - gcp: 1, gcpfactor: 20711, compression size: 512 
update - gcp: 1, gcpfactor: 20711, compression size: 512 
update - gcp: 1, gcpfactor: 20711, compression size: 512 
update - gcp: 1, gcpfactor: 20711, compression size: 512 
update - gcp: 1, gcpfactor: 20711, compression size: 512 
update - gcp: 1, gcpfactor: 20711, compression size: 512 
update - gcp: 1, gcpfactor: 20711, compression size: 512 
update - gcp: 1, gcpfactor: 20711, compression size: 512 
update - gcp: 1, gcpfactor: 20711, compression size: 512 
update - gcp: 1, gcpfactor: 20711, compression size: 512 
update - gcp: 1, gcpfactor: 20711, compression size: 512 
update - gcp: 1, gcpfactor: 20711, compression size: 512 
update - gcp: 1, gcpfactor: 20711, compression size: 512 
update - gcp: 1, gcpfactor: 20711, compression size: 512 
update - gcp: 1, gcpfactor: 20711, compression size: 512 
update - gcp: 1, gcpfactor: 20711, compression size: 512 
update - gcp: 1, gcpfactor: 20711, compression size: 512 
update - gcp: 1, gcpfactor: 20711, compression size: 512 
update - gcp: 1, gcpfactor: 20711, compression size: 512 
update - gcp: 1, gcpfactor: 20711, compression size: 512 
update - gcp: 1, gcpfactor: 20711, compression size: 512 
update - gcp: 1, gcpfactor: 20711, compression size: 512 
update - gcp: 1, gcpfactor: 20711, compression size: 512 
update - gcp: 1, gcpfactor: 20711, compression size: 512 
update - gcp: 1, gcpfactor: 20711, compression size: 512 
update - gcp: 1, gcpfactor: 20711, compression size: 512 
update - gcp: 1, gcpfactor: 20711, compression size: 512 
update - gcp: 1, gcpfactor: 20711, compression size: 512 
update - gcp: 1, gcpfactor: 20711, compression size: 512 
update - gcp: 1, gcpfactor: 20711, compression size: 512 
update - gcp: 1, gcpfactor: 20711, compression size: 512 
update - gcp: 1, gcpfactor: 20711, compression size: 512 
update - gcp: 1, gcpfactor: 20711, compression size: 512 
update - gcp: 1, gcpfactor: 20711, compression size: 512 
update - gcp: 1, gcpfactor: 20711, compression size: 512 
update - gcp: 1, gcpfactor: 20711, compression size: 512 
update - gcp: 1, gcpfactor: 20711, compression size: 512 
update - gcp: 1, gcpfactor: 20711, compression size: 512 
update - gcp: 1, gcpfactor: 20711, compression size: 512 
update - gcp: 1, gcpfactor: 20711, compression size: 512 
update - gcp: 1, gcpfactor: 20711, compression size: 512 
penalized hit
penalized hit
update - gcp: 1, gcpfactor: 20709, compression size: 512 
update - gcp: 1, gcpfactor: 20709, compression size: 512 
update - gcp: 1, gcpfactor: 20709, compression size: 512 
update - gcp: 1, gcpfactor: 20709, compression size: 512 
update - gcp: 1, gcpfactor: 20709, compression size: 512 
update - gcp: 1, gcpfactor: 20709, compression size: 512 
update - gcp: 1, gcpfactor: 20709, compression size: 512 
update - gcp: 1, gcpfactor: 20709, compression size: 512 
update - gcp: 1, gcpfactor: 20709, compression size: 512 
update - gcp: 1, gcpfactor: 20709, compression size: 512 
update - gcp: 1, gcpfactor: 20709, compression size: 512 
penalized hit
update - gcp: 1, gcpfactor: 20708, compression size: 512 
update - gcp: 1, gcpfactor: 20708, compression size: 512 
update - gcp: 1, gcpfactor: 20708, compression size: 512 
update - gcp: 1, gcpfactor: 20708, compression size: 512 
update - gcp: 1, gcpfactor: 20708, compression size: 512 
update - gcp: 1, gcpfactor: 20708, compression size: 512 
update - gcp: 1, gcpfactor: 20708, compression size: 512 
update - gcp: 1, gcpfactor: 20708, compression size: 512 
update - gcp: 1, gcpfactor: 20708, compression size: 512 
update - gcp: 1, gcpfactor: 20708, compression size: 512 
update - gcp: 1, gcpfactor: 20708, compression size: 512 
update - gcp: 1, gcpfactor: 20708, compression size: 512 
update - gcp: 1, gcpfactor: 20708, compression size: 512 
update - gcp: 1, gcpfactor: 20708, compression size: 512 
update - gcp: 1, gcpfactor: 20708, compression size: 512 
update - gcp: 1, gcpfactor: 20708, compression size: 512 
update - gcp: 1, gcpfactor: 20708, compression size: 512 
update - gcp: 1, gcpfactor: 20708, compression size: 512 
update - gcp: 1, gcpfactor: 20708, compression size: 512 
update - gcp: 1, gcpfactor: 20708, compression size: 512 
update - gcp: 1, gcpfactor: 20708, compression size: 512 
update - gcp: 1, gcpfactor: 20708, compression size: 512 
update - gcp: 1, gcpfactor: 20708, compression size: 512 
update - gcp: 1, gcpfactor: 20708, compression size: 512 
update - gcp: 1, gcpfactor: 20708, compression size: 512 
update - gcp: 1, gcpfactor: 20708, compression size: 512 
update - gcp: 1, gcpfactor: 20708, compression size: 512 
update - gcp: 1, gcpfactor: 20708, compression size: 512 
update - gcp: 1, gcpfactor: 20708, compression size: 512 
update - gcp: 1, gcpfactor: 20708, compression size: 512 
update - gcp: 1, gcpfactor: 20708, compression size: 512 
update - gcp: 1, gcpfactor: 20708, compression size: 512 
update - gcp: 1, gcpfactor: 20708, compression size: 512 
update - gcp: 1, gcpfactor: 20708, compression size: 512 
update - gcp: 1, gcpfactor: 20708, compression size: 512 
penalized hit
avoided miss
penalized hit
penalized hit
avoided miss
update - gcp: 1, gcpfactor: 20707, compression size: 512 
update - gcp: 1, gcpfactor: 20707, compression size: 512 
update - gcp: 1, gcpfactor: 20707, compression size: 512 
update - gcp: 1, gcpfactor: 20707, compression size: 512 
update - gcp: 1, gcpfactor: 20707, compression size: 512 
update - gcp: 1, gcpfactor: 20707, compression size: 512 
update - gcp: 1, gcpfactor: 20707, compression size: 512 
update - gcp: 1, gcpfactor: 20707, compression size: 512 
update - gcp: 1, gcpfactor: 20707, compression size: 512 
update - gcp: 1, gcpfactor: 20707, compression size: 512 
update - gcp: 1, gcpfactor: 20707, compression size: 512 
penalized hit
penalized hit
update - gcp: 1, gcpfactor: 20705, compression size: 240 
update - gcp: 1, gcpfactor: 20705, compression size: 512 
update - gcp: 1, gcpfactor: 20705, compression size: 512 
penalized hit
penalized hit
update - gcp: 1, gcpfactor: 20703, compression size: 512 
update - gcp: 1, gcpfactor: 20703, compression size: 512 
update - gcp: 1, gcpfactor: 20703, compression size: 512 
avoided miss
penalized hit
update - gcp: 1, gcpfactor: 20703, compression size: 240 
update - gcp: 1, gcpfactor: 20703, compression size: 512 
update - gcp: 1, gcpfactor: 20703, compression size: 512 
update - gcp: 1, gcpfactor: 20703, compression size: 512 
update - gcp: 1, gcpfactor: 20703, compression size: 512 
update - gcp: 1, gcpfactor: 20703, compression size: 512 
update - gcp: 1, gcpfactor: 20703, compression size: 512 
update - gcp: 1, gcpfactor: 20703, compression size: 512 
update - gcp: 1, gcpfactor: 20703, compression size: 512 
update - gcp: 1, gcpfactor: 20703, compression size: 512 
update - gcp: 1, gcpfactor: 20703, compression size: 512 
update - gcp: 1, gcpfactor: 20703, compression size: 512 
update - gcp: 1, gcpfactor: 20703, compression size: 512 
update - gcp: 1, gcpfactor: 20703, compression size: 512 
update - gcp: 1, gcpfactor: 20703, compression size: 512 
penalized hit
update - gcp: 1, gcpfactor: 20702, compression size: 512 
update - gcp: 1, gcpfactor: 20702, compression size: 512 
update - gcp: 1, gcpfactor: 20702, compression size: 512 
update - gcp: 1, gcpfactor: 20702, compression size: 512 
penalized hit
penalized hit
update - gcp: 1, gcpfactor: 20700, compression size: 512 
update - gcp: 1, gcpfactor: 20700, compression size: 512 
update - gcp: 1, gcpfactor: 20700, compression size: 512 
update - gcp: 1, gcpfactor: 20700, compression size: 512 
update - gcp: 1, gcpfactor: 20700, compression size: 512 
update - gcp: 1, gcpfactor: 20700, compression size: 512 
update - gcp: 1, gcpfactor: 20700, compression size: 512 
update - gcp: 1, gcpfactor: 20700, compression size: 512 
update - gcp: 1, gcpfactor: 20700, compression size: 512 
update - gcp: 1, gcpfactor: 20700, compression size: 512 
update - gcp: 1, gcpfactor: 20700, compression size: 512 
update - gcp: 1, gcpfactor: 20700, compression size: 512 
update - gcp: 1, gcpfactor: 20700, compression size: 512 
update - gcp: 1, gcpfactor: 20700, compression size: 512 
penalized hit
avoided miss
update - gcp: 1, gcpfactor: 20700, compression size: 176 
penalized hit
update - gcp: 1, gcpfactor: 20699, compression size: 240 
avodiable miss
gcpfactor has to 0>: 20700 
compressed size: 12 
penalized hit
update - gcp: 1, gcpfactor: 20699, compression size: 240 
penalized hit
update - gcp: 1, gcpfactor: 20698, compression size: 512 
avodiable miss
gcpfactor has to 0>: 20699 
compressed size: 12 
penalized hit
update - gcp: 1, gcpfactor: 20698, compression size: 185 
penalized hit
penalized hit
penalized hit
penalized hit
update - gcp: 1, gcpfactor: 20694, compression size: 512 
penalized hit
update - gcp: 1, gcpfactor: 20693, compression size: 512 
update - gcp: 1, gcpfactor: 20693, compression size: 512 
update - gcp: 1, gcpfactor: 20693, compression size: 512 
update - gcp: 1, gcpfactor: 20693, compression size: 512 
update - gcp: 1, gcpfactor: 20693, compression size: 512 
avoided miss
penalized hit
update - gcp: 1, gcpfactor: 20693, compression size: 512 
update - gcp: 1, gcpfactor: 20693, compression size: 512 
update - gcp: 1, gcpfactor: 20693, compression size: 512 
update - gcp: 1, gcpfactor: 20693, compression size: 512 
update - gcp: 1, gcpfactor: 20693, compression size: 512 
update - gcp: 1, gcpfactor: 20693, compression size: 512 
update - gcp: 1, gcpfactor: 20693, compression size: 512 
penalized hit
penalized hit
update - gcp: 1, gcpfactor: 20691, compression size: 240 
update - gcp: 1, gcpfactor: 20691, compression size: 512 
update - gcp: 1, gcpfactor: 20691, compression size: 512 
penalized hit
penalized hit
update - gcp: 1, gcpfactor: 20689, compression size: 512 
penalized hit
update - gcp: 1, gcpfactor: 20688, compression size: 512 
update - gcp: 1, gcpfactor: 20688, compression size: 512 
update - gcp: 1, gcpfactor: 20688, compression size: 512 
update - gcp: 1, gcpfactor: 20688, compression size: 512 
update - gcp: 1, gcpfactor: 20688, compression size: 512 
update - gcp: 1, gcpfactor: 20688, compression size: 512 
update - gcp: 1, gcpfactor: 20688, compression size: 512 
update - gcp: 1, gcpfactor: 20688, compression size: 512 
update - gcp: 1, gcpfactor: 20688, compression size: 512 
update - gcp: 1, gcpfactor: 20688, compression size: 512 
penalized hit
update - gcp: 1, gcpfactor: 20687, compression size: 512 
update - gcp: 1, gcpfactor: 20687, compression size: 512 
update - gcp: 1, gcpfactor: 20687, compression size: 512 
update - gcp: 1, gcpfactor: 20687, compression size: 512 
update - gcp: 1, gcpfactor: 20687, compression size: 512 
update - gcp: 1, gcpfactor: 20687, compression size: 512 
update - gcp: 1, gcpfactor: 20687, compression size: 512 
update - gcp: 1, gcpfactor: 20687, compression size: 512 
penalized hit
update - gcp: 1, gcpfactor: 20686, compression size: 512 
update - gcp: 1, gcpfactor: 20686, compression size: 512 
update - gcp: 1, gcpfactor: 20686, compression size: 512 
update - gcp: 1, gcpfactor: 20686, compression size: 512 
update - gcp: 1, gcpfactor: 20686, compression size: 512 
update - gcp: 1, gcpfactor: 20686, compression size: 512 
update - gcp: 1, gcpfactor: 20686, compression size: 512 
update - gcp: 1, gcpfactor: 20686, compression size: 512 
update - gcp: 1, gcpfactor: 20686, compression size: 512 
update - gcp: 1, gcpfactor: 20686, compression size: 512 
update - gcp: 1, gcpfactor: 20686, compression size: 512 
update - gcp: 1, gcpfactor: 20686, compression size: 512 
update - gcp: 1, gcpfactor: 20686, compression size: 512 
update - gcp: 1, gcpfactor: 20686, compression size: 512 
update - gcp: 1, gcpfactor: 20686, compression size: 512 
update - gcp: 1, gcpfactor: 20686, compression size: 512 
update - gcp: 1, gcpfactor: 20686, compression size: 512 
penalized hit
update - gcp: 1, gcpfactor: 20685, compression size: 234 
avoided miss
update - gcp: 1, gcpfactor: 20686, compression size: 176 
penalized hit
update - gcp: 1, gcpfactor: 20685, compression size: 240 
penalized hit
update - gcp: 1, gcpfactor: 20684, compression size: 240 
avodiable miss
gcpfactor has to 0>: 20685 
compressed size: 12 
avoided miss
update - gcp: 1, gcpfactor: 20686, compression size: 129 
avoided miss
update - gcp: 1, gcpfactor: 20687, compression size: 249 
penalized hit
update - gcp: 1, gcpfactor: 20686, compression size: 512 
penalized hit
update - gcp: 1, gcpfactor: 20685, compression size: 232 
penalized hit
update - gcp: 1, gcpfactor: 20684, compression size: 512 
penalized hit
update - gcp: 1, gcpfactor: 20683, compression size: 224 
penalized hit
update - gcp: 1, gcpfactor: 20682, compression size: 512 
penalized hit
update - gcp: 1, gcpfactor: 20681, compression size: 216 
penalized hit
update - gcp: 1, gcpfactor: 20680, compression size: 512 
penalized hit
update - gcp: 1, gcpfactor: 20679, compression size: 208 
penalized hit
update - gcp: 1, gcpfactor: 20678, compression size: 512 
penalized hit
update - gcp: 1, gcpfactor: 20677, compression size: 200 
penalized hit
update - gcp: 1, gcpfactor: 20676, compression size: 512 
penalized hit
update - gcp: 1, gcpfactor: 20675, compression size: 192 
avodiable miss
gcpfactor has to 0>: 20676 
compressed size: 12 
avoided miss
update - gcp: 1, gcpfactor: 20677, compression size: 512 
penalized hit
update - gcp: 1, gcpfactor: 20676, compression size: 512 
penalized hit
update - gcp: 1, gcpfactor: 20675, compression size: 184 
penalized hit
update - gcp: 1, gcpfactor: 20674, compression size: 512 
avoided miss
avoided miss
update - gcp: 1, gcpfactor: 20676, compression size: 170 
avoided miss
penalized hit
update - gcp: 1, gcpfactor: 20676, compression size: 512 
update - gcp: 1, gcpfactor: 20676, compression size: 512 
update - gcp: 1, gcpfactor: 20676, compression size: 512 
update - gcp: 1, gcpfactor: 20676, compression size: 512 
update - gcp: 1, gcpfactor: 20676, compression size: 512 
update - gcp: 1, gcpfactor: 20676, compression size: 512 
avoided miss
penalized hit
update - gcp: 1, gcpfactor: 20676, compression size: 512 
update - gcp: 1, gcpfactor: 20676, compression size: 512 
update - gcp: 1, gcpfactor: 20676, compression size: 512 
update - gcp: 1, gcpfactor: 20676, compression size: 512 
update - gcp: 1, gcpfactor: 20676, compression size: 512 
update - gcp: 1, gcpfactor: 20676, compression size: 512 
update - gcp: 1, gcpfactor: 20676, compression size: 512 
penalized hit
penalized hit
update - gcp: 1, gcpfactor: 20674, compression size: 240 
update - gcp: 1, gcpfactor: 20674, compression size: 512 
update - gcp: 1, gcpfactor: 20674, compression size: 512 
penalized hit
update - gcp: 1, gcpfactor: 20673, compression size: 512 
penalized hit
update - gcp: 1, gcpfactor: 20672, compression size: 512 
avoided miss
update - gcp: 1, gcpfactor: 20673, compression size: 192 
update - gcp: 1, gcpfactor: 20673, compression size: 512 
update - gcp: 1, gcpfactor: 20673, compression size: 512 
update - gcp: 1, gcpfactor: 20673, compression size: 512 
update - gcp: 1, gcpfactor: 20673, compression size: 512 
update - gcp: 1, gcpfactor: 20673, compression size: 512 
update - gcp: 1, gcpfactor: 20673, compression size: 512 
update - gcp: 1, gcpfactor: 20673, compression size: 512 
update - gcp: 1, gcpfactor: 20673, compression size: 512 
penalized hit
update - gcp: 1, gcpfactor: 20672, compression size: 176 
update - gcp: 1, gcpfactor: 20672, compression size: 512 
penalized hit
update - gcp: 1, gcpfactor: 20671, compression size: 512 
penalized hit
update - gcp: 1, gcpfactor: 20670, compression size: 512 
update - gcp: 1, gcpfactor: 20670, compression size: 512 
update - gcp: 1, gcpfactor: 20670, compression size: 512 
update - gcp: 1, gcpfactor: 20670, compression size: 512 
update - gcp: 1, gcpfactor: 20670, compression size: 512 
update - gcp: 1, gcpfactor: 20670, compression size: 512 
update - gcp: 1, gcpfactor: 20670, compression size: 512 
update - gcp: 1, gcpfactor: 20670, compression size: 512 
update - gcp: 1, gcpfactor: 20670, compression size: 512 
update - gcp: 1, gcpfactor: 20670, compression size: 512 
update - gcp: 1, gcpfactor: 20670, compression size: 512 
update - gcp: 1, gcpfactor: 20670, compression size: 512 
update - gcp: 1, gcpfactor: 20670, compression size: 512 
update - gcp: 1, gcpfactor: 20670, compression size: 512 
update - gcp: 1, gcpfactor: 20670, compression size: 512 
update - gcp: 1, gcpfactor: 20670, compression size: 512 
update - gcp: 1, gcpfactor: 20670, compression size: 512 
update - gcp: 1, gcpfactor: 20670, compression size: 512 
update - gcp: 1, gcpfactor: 20670, compression size: 512 
update - gcp: 1, gcpfactor: 20670, compression size: 512 
update - gcp: 1, gcpfactor: 20670, compression size: 512 
update - gcp: 1, gcpfactor: 20670, compression size: 512 
update - gcp: 1, gcpfactor: 20670, compression size: 512 
update - gcp: 1, gcpfactor: 20670, compression size: 512 
penalized hit
update - gcp: 1, gcpfactor: 20669, compression size: 240 
avoided miss
update - gcp: 1, gcpfactor: 20670, compression size: 234 
avoided miss
update - gcp: 1, gcpfactor: 20671, compression size: 176 
penalized hit
update - gcp: 1, gcpfactor: 20670, compression size: 240 
avodiable miss
gcpfactor has to 0>: 20671 
compressed size: 12 
avoided miss
update - gcp: 1, gcpfactor: 20672, compression size: 512 
penalized hit
avoided miss
update - gcp: 1, gcpfactor: 20672, compression size: 129 
penalized hit
update - gcp: 1, gcpfactor: 20671, compression size: 512 
penalized hit
update - gcp: 1, gcpfactor: 20670, compression size: 176 
penalized hit
update - gcp: 1, gcpfactor: 20669, compression size: 512 
penalized hit
update - gcp: 1, gcpfactor: 20668, compression size: 176 
penalized hit
update - gcp: 1, gcpfactor: 20667, compression size: 512 
penalized hit
update - gcp: 1, gcpfactor: 20666, compression size: 176 
penalized hit
update - gcp: 1, gcpfactor: 20665, compression size: 512 
penalized hit
update - gcp: 1, gcpfactor: 20664, compression size: 176 
penalized hit
update - gcp: 1, gcpfactor: 20663, compression size: 512 
penalized hit
update - gcp: 1, gcpfactor: 20662, compression size: 176 
penalized hit
update - gcp: 1, gcpfactor: 20661, compression size: 512 
penalized hit
update - gcp: 1, gcpfactor: 20660, compression size: 176 
avodiable miss
gcpfactor has to 0>: 20661 
compressed size: 12 
penalized hit
update - gcp: 1, gcpfactor: 20660, compression size: 253 
avoided miss
penalized hit
penalized hit
update - gcp: 1, gcpfactor: 20659, compression size: 512 
penalized hit
update - gcp: 1, gcpfactor: 20658, compression size: 176 
penalized hit
update - gcp: 1, gcpfactor: 20657, compression size: 512 
penalized hit
avoided miss
avoided miss
penalized hit
update - gcp: 1, gcpfactor: 20657, compression size: 512 
avoided miss
update - gcp: 1, gcpfactor: 20658, compression size: 512 
Exiting @ tick 7298520500 because a thread reached the max instruction count
