Global frequency set at 1000000000000 ticks per second
gem5 Simulator System.  https://www.gem5.org
gem5 is copyrighted software; use the --copyright option for details.

gem5 version 22.0.0.2
gem5 compiled Dec  7 2024 02:38:08
gem5 started Dec  7 2024 02:40:12
gem5 executing on qstruct.ecn.purdue.edu, pid 24259
command line: ./build/ECE565-ARM/gem5.opt configs/spec/spec_se.py --cpu-type ArmMinorCPU --l1d_size=64kB --l1i_size=64kB --caches --l2cache --l2_compressor --gcp -b astar --maxinsts=10000000

**** REAL SIMULATION ****
gcpfactor has to 0<: 0 
uncompressed size: 512
gcpfactor has to 0<: 0 
uncompressed size: 512
avodiable miss
gcpfactor has to 0<: -1 
uncompressed size: 512
gcpfactor has to 0<: -1 
uncompressed size: 512
gcpfactor has to 0<: -1 
uncompressed size: 512
avodiable miss
gcpfactor has to 0<: -2 
uncompressed size: 512
gcpfactor has to 0<: -2 
uncompressed size: 512
gcpfactor has to 0<: -2 
uncompressed size: 512
gcpfactor has to 0<: -2 
uncompressed size: 512
avodiable miss
gcpfactor has to 0<: -3 
uncompressed size: 512
avodiable miss
gcpfactor has to 0<: -4 
uncompressed size: 512
gcpfactor has to 0<: -4 
uncompressed size: 512
avodiable miss
gcpfactor has to 0<: -5 
uncompressed size: 512
gcpfactor has to 0<: -5 
uncompressed size: 512
gcpfactor has to 0<: -5 
uncompressed size: 512
gcpfactor has to 0<: -5 
uncompressed size: 512
gcpfactor has to 0<: -5 
uncompressed size: 512
gcpfactor has to 0<: -5 
uncompressed size: 512
avodiable miss
gcpfactor has to 0<: -6 
uncompressed size: 512
gcpfactor has to 0<: -6 
uncompressed size: 512
gcpfactor has to 0<: -6 
uncompressed size: 512
avodiable miss
gcpfactor has to 0<: -7 
uncompressed size: 512
avodiable miss
gcpfactor has to 0<: -8 
uncompressed size: 512
gcpfactor has to 0<: -8 
uncompressed size: 512
gcpfactor has to 0<: -8 
uncompressed size: 512
gcpfactor has to 0<: -8 
uncompressed size: 512
avodiable miss
gcpfactor has to 0<: -9 
uncompressed size: 512
avodiable miss
gcpfactor has to 0<: -10 
uncompressed size: 512
gcpfactor has to 0<: -10 
uncompressed size: 512
avodiable miss
gcpfactor has to 0<: -11 
uncompressed size: 512
gcpfactor has to 0<: -11 
uncompressed size: 512
gcpfactor has to 0<: -11 
uncompressed size: 512
gcpfactor has to 0<: -11 
uncompressed size: 512
gcpfactor has to 0<: -11 
uncompressed size: 512
avodiable miss
gcpfactor has to 0<: -12 
uncompressed size: 512
gcpfactor has to 0<: -12 
uncompressed size: 512
avodiable miss
gcpfactor has to 0<: -13 
uncompressed size: 512
gcpfactor has to 0<: -13 
uncompressed size: 512
avodiable miss
gcpfactor has to 0<: -14 
uncompressed size: 512
avodiable miss
gcpfactor has to 0<: -15 
uncompressed size: 512
gcpfactor has to 0<: -15 
uncompressed size: 512
avodiable miss
gcpfactor has to 0<: -16 
uncompressed size: 512
avodiable miss
gcpfactor has to 0<: -17 
uncompressed size: 512
avodiable miss
gcpfactor has to 0<: -18 
uncompressed size: 512
avodiable miss
gcpfactor has to 0<: -19 
uncompressed size: 512
gcpfactor has to 0<: -19 
uncompressed size: 512
avodiable miss
gcpfactor has to 0<: -20 
uncompressed size: 512
gcpfactor has to 0<: -20 
uncompressed size: 512
avodiable miss
gcpfactor has to 0<: -21 
uncompressed size: 512
gcpfactor has to 0<: -21 
uncompressed size: 512
gcpfactor has to 0<: -21 
uncompressed size: 512
avodiable miss
gcpfactor has to 0<: -22 
uncompressed size: 512
gcpfactor has to 0<: -22 
uncompressed size: 512
gcpfactor has to 0<: -22 
uncompressed size: 512
avodiable miss
gcpfactor has to 0<: -23 
uncompressed size: 512
gcpfactor has to 0<: -23 
uncompressed size: 512
avodiable miss
gcpfactor has to 0<: -24 
uncompressed size: 512
gcpfactor has to 0<: -24 
uncompressed size: 512
avodiable miss
gcpfactor has to 0<: -25 
uncompressed size: 512
avodiable miss
gcpfactor has to 0<: -26 
uncompressed size: 512
gcpfactor has to 0<: -26 
uncompressed size: 512
gcpfactor has to 0<: -26 
uncompressed size: 512
avodiable miss
gcpfactor has to 0<: -27 
uncompressed size: 512
gcpfactor has to 0<: -27 
uncompressed size: 512
gcpfactor has to 0<: -27 
uncompressed size: 512
avodiable miss
gcpfactor has to 0<: -28 
uncompressed size: 512
gcpfactor has to 0<: -28 
uncompressed size: 512
avodiable miss
gcpfactor has to 0<: -29 
uncompressed size: 512
gcpfactor has to 0<: -29 
uncompressed size: 512
gcpfactor has to 0<: -29 
uncompressed size: 512
avodiable miss
gcpfactor has to 0<: -30 
uncompressed size: 512
gcpfactor has to 0<: -30 
uncompressed size: 512
avodiable miss
gcpfactor has to 0<: -31 
uncompressed size: 512
gcpfactor has to 0<: -31 
uncompressed size: 512
gcpfactor has to 0<: -31 
uncompressed size: 512
gcpfactor has to 0<: -31 
uncompressed size: 512
gcpfactor has to 0<: -31 
uncompressed size: 512
gcpfactor has to 0<: -31 
uncompressed size: 512
gcpfactor has to 0<: -31 
uncompressed size: 512
gcpfactor has to 0<: -31 
uncompressed size: 512
avodiable miss
gcpfactor has to 0<: -32 
uncompressed size: 512
avodiable miss
gcpfactor has to 0<: -33 
uncompressed size: 512
avodiable miss
gcpfactor has to 0<: -34 
uncompressed size: 512
avodiable miss
gcpfactor has to 0<: -35 
uncompressed size: 512
gcpfactor has to 0<: -35 
uncompressed size: 512
avodiable miss
gcpfactor has to 0<: -36 
uncompressed size: 512
gcpfactor has to 0<: -36 
uncompressed size: 512
gcpfactor has to 0<: -36 
uncompressed size: 512
avodiable miss
gcpfactor has to 0<: -37 
uncompressed size: 512
gcpfactor has to 0<: -37 
uncompressed size: 512
gcpfactor has to 0<: -37 
uncompressed size: 512
avodiable miss
gcpfactor has to 0<: -38 
uncompressed size: 512
gcpfactor has to 0<: -38 
uncompressed size: 512
gcpfactor has to 0<: -38 
uncompressed size: 512
avodiable miss
gcpfactor has to 0<: -39 
uncompressed size: 512
gcpfactor has to 0<: -39 
uncompressed size: 512
gcpfactor has to 0<: -39 
uncompressed size: 512
avodiable miss
gcpfactor has to 0<: -40 
uncompressed size: 512
gcpfactor has to 0<: -40 
uncompressed size: 512
gcpfactor has to 0<: -40 
uncompressed size: 512
gcpfactor has to 0<: -40 
uncompressed size: 512
avodiable miss
gcpfactor has to 0<: -41 
uncompressed size: 512
gcpfactor has to 0<: -41 
uncompressed size: 512
avodiable miss
gcpfactor has to 0<: -42 
uncompressed size: 512
gcpfactor has to 0<: -42 
uncompressed size: 512
gcpfactor has to 0<: -42 
uncompressed size: 512
gcpfactor has to 0<: -42 
uncompressed size: 512
gcpfactor has to 0<: -42 
uncompressed size: 512
gcpfactor has to 0<: -42 
uncompressed size: 512
gcpfactor has to 0<: -42 
uncompressed size: 512
avodiable miss
gcpfactor has to 0<: -43 
uncompressed size: 512
gcpfactor has to 0<: -43 
uncompressed size: 512
avodiable miss
gcpfactor has to 0<: -44 
uncompressed size: 512
gcpfactor has to 0<: -44 
uncompressed size: 512
gcpfactor has to 0<: -44 
uncompressed size: 512
avodiable miss
gcpfactor has to 0<: -45 
uncompressed size: 512
gcpfactor has to 0<: -45 
uncompressed size: 512
gcpfactor has to 0<: -45 
uncompressed size: 512
gcpfactor has to 0<: -45 
uncompressed size: 512
gcpfactor has to 0<: -45 
uncompressed size: 512
gcpfactor has to 0<: -45 
uncompressed size: 512
avodiable miss
gcpfactor has to 0<: -46 
uncompressed size: 512
gcpfactor has to 0<: -46 
uncompressed size: 512
avodiable miss
gcpfactor has to 0<: -47 
uncompressed size: 512
gcpfactor has to 0<: -47 
uncompressed size: 512
gcpfactor has to 0<: -47 
uncompressed size: 512
avodiable miss
gcpfactor has to 0<: -48 
uncompressed size: 512
gcpfactor has to 0<: -48 
uncompressed size: 512
gcpfactor has to 0<: -48 
uncompressed size: 512
avodiable miss
gcpfactor has to 0<: -49 
uncompressed size: 512
gcpfactor has to 0<: -49 
uncompressed size: 512
gcpfactor has to 0<: -49 
uncompressed size: 512
gcpfactor has to 0<: -49 
uncompressed size: 512
avodiable miss
gcpfactor has to 0<: -50 
uncompressed size: 512
gcpfactor has to 0<: -50 
uncompressed size: 512
avodiable miss
avodiable miss
gcpfactor has to 0<: -52 
uncompressed size: 512
gcpfactor has to 0<: -52 
uncompressed size: 512
gcpfactor has to 0<: -52 
uncompressed size: 512
avodiable miss
gcpfactor has to 0<: -53 
uncompressed size: 512
avodiable miss
gcpfactor has to 0<: -54 
uncompressed size: 512
gcpfactor has to 0<: -54 
uncompressed size: 512
gcpfactor has to 0<: -54 
uncompressed size: 512
avodiable miss
gcpfactor has to 0<: -55 
uncompressed size: 512
gcpfactor has to 0<: -55 
uncompressed size: 512
gcpfactor has to 0<: -55 
uncompressed size: 512
avodiable miss
gcpfactor has to 0<: -56 
uncompressed size: 512
gcpfactor has to 0<: -56 
uncompressed size: 512
gcpfactor has to 0<: -56 
uncompressed size: 512
gcpfactor has to 0<: -56 
uncompressed size: 512
gcpfactor has to 0<: -56 
uncompressed size: 512
gcpfactor has to 0<: -56 
uncompressed size: 512
gcpfactor has to 0<: -56 
uncompressed size: 512
avodiable miss
gcpfactor has to 0<: -57 
uncompressed size: 512
gcpfactor has to 0<: -57 
uncompressed size: 512
gcpfactor has to 0<: -57 
uncompressed size: 512
avodiable miss
gcpfactor has to 0<: -58 
uncompressed size: 512
gcpfactor has to 0<: -58 
uncompressed size: 512
avodiable miss
gcpfactor has to 0<: -59 
uncompressed size: 512
avodiable miss
gcpfactor has to 0<: -60 
uncompressed size: 512
gcpfactor has to 0<: -60 
uncompressed size: 512
gcpfactor has to 0<: -60 
uncompressed size: 512
gcpfactor has to 0<: -60 
uncompressed size: 512
avodiable miss
gcpfactor has to 0<: -61 
uncompressed size: 512
gcpfactor has to 0<: -61 
uncompressed size: 512
gcpfactor has to 0<: -61 
uncompressed size: 512
avodiable miss
gcpfactor has to 0<: -62 
uncompressed size: 512
gcpfactor has to 0<: -62 
uncompressed size: 512
gcpfactor has to 0<: -62 
uncompressed size: 512
gcpfactor has to 0<: -62 
uncompressed size: 512
gcpfactor has to 0<: -62 
uncompressed size: 512
avodiable miss
gcpfactor has to 0<: -63 
uncompressed size: 512
avodiable miss
gcpfactor has to 0<: -64 
uncompressed size: 512
gcpfactor has to 0<: -64 
uncompressed size: 512
gcpfactor has to 0<: -64 
uncompressed size: 512
gcpfactor has to 0<: -64 
uncompressed size: 512
gcpfactor has to 0<: -64 
uncompressed size: 512
avodiable miss
gcpfactor has to 0<: -65 
uncompressed size: 512
avodiable miss
gcpfactor has to 0<: -66 
uncompressed size: 512
gcpfactor has to 0<: -66 
uncompressed size: 512
avodiable miss
gcpfactor has to 0<: -67 
uncompressed size: 512
gcpfactor has to 0<: -67 
uncompressed size: 512
avodiable miss
avodiable miss
gcpfactor has to 0<: -69 
uncompressed size: 512
gcpfactor has to 0<: -69 
uncompressed size: 512
gcpfactor has to 0<: -69 
uncompressed size: 512
gcpfactor has to 0<: -69 
uncompressed size: 512
avodiable miss
gcpfactor has to 0<: -70 
uncompressed size: 512
gcpfactor has to 0<: -70 
uncompressed size: 512
avodiable miss
gcpfactor has to 0<: -71 
uncompressed size: 512
gcpfactor has to 0<: -71 
uncompressed size: 512
avodiable miss
gcpfactor has to 0<: -72 
uncompressed size: 512
gcpfactor has to 0<: -72 
uncompressed size: 512
gcpfactor has to 0<: -72 
uncompressed size: 512
gcpfactor has to 0<: -72 
uncompressed size: 512
avodiable miss
gcpfactor has to 0<: -73 
uncompressed size: 512
gcpfactor has to 0<: -73 
uncompressed size: 512
gcpfactor has to 0<: -73 
uncompressed size: 512
avodiable miss
gcpfactor has to 0<: -74 
uncompressed size: 512
gcpfactor has to 0<: -74 
uncompressed size: 512
avodiable miss
gcpfactor has to 0<: -75 
uncompressed size: 512
gcpfactor has to 0<: -75 
uncompressed size: 512
gcpfactor has to 0<: -75 
uncompressed size: 512
avodiable miss
gcpfactor has to 0<: -76 
uncompressed size: 512
gcpfactor has to 0<: -76 
uncompressed size: 512
gcpfactor has to 0<: -76 
uncompressed size: 512
gcpfactor has to 0<: -76 
uncompressed size: 512
avodiable miss
gcpfactor has to 0<: -77 
uncompressed size: 512
gcpfactor has to 0<: -77 
uncompressed size: 512
avodiable miss
gcpfactor has to 0<: -78 
uncompressed size: 512
gcpfactor has to 0<: -78 
uncompressed size: 512
avodiable miss
gcpfactor has to 0<: -79 
uncompressed size: 512
gcpfactor has to 0<: -79 
uncompressed size: 512
gcpfactor has to 0<: -79 
uncompressed size: 512
avodiable miss
gcpfactor has to 0<: -80 
uncompressed size: 512
gcpfactor has to 0<: -80 
uncompressed size: 512
gcpfactor has to 0<: -80 
uncompressed size: 512
gcpfactor has to 0<: -80 
uncompressed size: 512
gcpfactor has to 0<: -80 
uncompressed size: 512
avodiable miss
avodiable miss
gcpfactor has to 0<: -82 
uncompressed size: 512
gcpfactor has to 0<: -82 
uncompressed size: 512
gcpfactor has to 0<: -82 
uncompressed size: 512
gcpfactor has to 0<: -82 
uncompressed size: 512
gcpfactor has to 0<: -82 
uncompressed size: 512
avodiable miss
gcpfactor has to 0<: -83 
uncompressed size: 512
avodiable miss
gcpfactor has to 0<: -84 
uncompressed size: 512
gcpfactor has to 0<: -84 
uncompressed size: 512
gcpfactor has to 0<: -84 
uncompressed size: 512
avodiable miss
gcpfactor has to 0<: -85 
uncompressed size: 512
gcpfactor has to 0<: -85 
uncompressed size: 512
gcpfactor has to 0<: -85 
uncompressed size: 512
avodiable miss
gcpfactor has to 0<: -86 
uncompressed size: 512
gcpfactor has to 0<: -86 
uncompressed size: 512
avodiable miss
gcpfactor has to 0<: -87 
uncompressed size: 512
gcpfactor has to 0<: -87 
uncompressed size: 512
avodiable miss
gcpfactor has to 0<: -88 
uncompressed size: 512
gcpfactor has to 0<: -88 
uncompressed size: 512
avodiable miss
gcpfactor has to 0<: -89 
uncompressed size: 512
gcpfactor has to 0<: -89 
uncompressed size: 512
avodiable miss
gcpfactor has to 0<: -90 
uncompressed size: 512
gcpfactor has to 0<: -90 
uncompressed size: 512
avodiable miss
gcpfactor has to 0<: -91 
uncompressed size: 512
gcpfactor has to 0<: -91 
uncompressed size: 512
avodiable miss
gcpfactor has to 0<: -92 
uncompressed size: 512
gcpfactor has to 0<: -92 
uncompressed size: 512
avodiable miss
gcpfactor has to 0<: -93 
uncompressed size: 512
gcpfactor has to 0<: -93 
uncompressed size: 512
avodiable miss
gcpfactor has to 0<: -94 
uncompressed size: 512
gcpfactor has to 0<: -94 
uncompressed size: 512
avodiable miss
gcpfactor has to 0<: -95 
uncompressed size: 512
gcpfactor has to 0<: -95 
uncompressed size: 512
avodiable miss
gcpfactor has to 0<: -96 
uncompressed size: 512
gcpfactor has to 0<: -96 
uncompressed size: 512
avodiable miss
gcpfactor has to 0<: -97 
uncompressed size: 512
gcpfactor has to 0<: -97 
uncompressed size: 512
avodiable miss
gcpfactor has to 0<: -98 
uncompressed size: 512
gcpfactor has to 0<: -98 
uncompressed size: 512
avodiable miss
gcpfactor has to 0<: -99 
uncompressed size: 512
avodiable miss
gcpfactor has to 0<: -100 
uncompressed size: 512
avodiable miss
gcpfactor has to 0<: -101 
uncompressed size: 512
gcpfactor has to 0<: -101 
uncompressed size: 512
gcpfactor has to 0<: -101 
uncompressed size: 512
gcpfactor has to 0<: -101 
uncompressed size: 512
gcpfactor has to 0<: -101 
uncompressed size: 512
avodiable miss
gcpfactor has to 0<: -102 
uncompressed size: 512
gcpfactor has to 0<: -102 
uncompressed size: 512
avodiable miss
gcpfactor has to 0<: -103 
uncompressed size: 512
gcpfactor has to 0<: -103 
uncompressed size: 512
gcpfactor has to 0<: -103 
uncompressed size: 512
avodiable miss
gcpfactor has to 0<: -104 
uncompressed size: 512
avodiable miss
gcpfactor has to 0<: -105 
uncompressed size: 512
avodiable miss
gcpfactor has to 0<: -106 
uncompressed size: 512
gcpfactor has to 0<: -106 
uncompressed size: 512
gcpfactor has to 0<: -106 
uncompressed size: 512
gcpfactor has to 0<: -106 
uncompressed size: 512
gcpfactor has to 0<: -106 
uncompressed size: 512
avodiable miss
gcpfactor has to 0<: -107 
uncompressed size: 512
gcpfactor has to 0<: -107 
uncompressed size: 512
gcpfactor has to 0<: -107 
uncompressed size: 512
gcpfactor has to 0<: -107 
uncompressed size: 512
avodiable miss
avodiable miss
gcpfactor has to 0<: -109 
uncompressed size: 512
gcpfactor has to 0<: -109 
uncompressed size: 512
gcpfactor has to 0<: -109 
uncompressed size: 512
unpenalized hit
update - gcpfactor: -109, compression size: 64 
gcpfactor has to 0<: -109 
uncompressed size: 512
avodiable miss
gcpfactor has to 0<: -110 
uncompressed size: 512
gcpfactor has to 0<: -110 
uncompressed size: 512
avodiable miss
gcpfactor has to 0<: -111 
uncompressed size: 512
avodiable miss
gcpfactor has to 0<: -112 
uncompressed size: 512
avodiable miss
gcpfactor has to 0<: -113 
uncompressed size: 512
gcpfactor has to 0<: -113 
uncompressed size: 512
gcpfactor has to 0<: -113 
uncompressed size: 512
avodiable miss
gcpfactor has to 0<: -114 
uncompressed size: 512
gcpfactor has to 0<: -114 
uncompressed size: 512
gcpfactor has to 0<: -114 
uncompressed size: 512
avodiable miss
gcpfactor has to 0<: -115 
uncompressed size: 512
gcpfactor has to 0<: -115 
uncompressed size: 512
avodiable miss
gcpfactor has to 0<: -116 
uncompressed size: 512
gcpfactor has to 0<: -116 
uncompressed size: 512
avodiable miss
gcpfactor has to 0<: -117 
uncompressed size: 512
gcpfactor has to 0<: -117 
uncompressed size: 512
avodiable miss
gcpfactor has to 0<: -118 
uncompressed size: 512
gcpfactor has to 0<: -118 
uncompressed size: 512
avodiable miss
gcpfactor has to 0<: -119 
uncompressed size: 512
gcpfactor has to 0<: -119 
uncompressed size: 512
avodiable miss
gcpfactor has to 0<: -120 
uncompressed size: 512
gcpfactor has to 0<: -120 
uncompressed size: 512
gcpfactor has to 0<: -120 
uncompressed size: 512
gcpfactor has to 0<: -120 
uncompressed size: 512
avodiable miss
gcpfactor has to 0<: -121 
uncompressed size: 512
gcpfactor has to 0<: -121 
uncompressed size: 512
avodiable miss
gcpfactor has to 0<: -122 
uncompressed size: 512
gcpfactor has to 0<: -122 
uncompressed size: 512
avodiable miss
gcpfactor has to 0<: -123 
uncompressed size: 512
gcpfactor has to 0<: -123 
uncompressed size: 512
gcpfactor has to 0<: -123 
uncompressed size: 512
avodiable miss
gcpfactor has to 0<: -124 
uncompressed size: 512
gcpfactor has to 0<: -124 
uncompressed size: 512
avodiable miss
gcpfactor has to 0<: -125 
uncompressed size: 512
gcpfactor has to 0<: -125 
uncompressed size: 512
avodiable miss
gcpfactor has to 0<: -126 
uncompressed size: 512
gcpfactor has to 0<: -126 
uncompressed size: 512
avodiable miss
gcpfactor has to 0<: -127 
uncompressed size: 512
gcpfactor has to 0<: -127 
uncompressed size: 512
gcpfactor has to 0<: -127 
uncompressed size: 512
avodiable miss
gcpfactor has to 0<: -128 
uncompressed size: 512
avodiable miss
gcpfactor has to 0<: -129 
uncompressed size: 512
gcpfactor has to 0<: -129 
uncompressed size: 512
avodiable miss
gcpfactor has to 0<: -130 
uncompressed size: 512
gcpfactor has to 0<: -130 
uncompressed size: 512
gcpfactor has to 0<: -130 
uncompressed size: 512
gcpfactor has to 0<: -130 
uncompressed size: 512
avodiable miss
gcpfactor has to 0<: -131 
uncompressed size: 512
gcpfactor has to 0<: -131 
uncompressed size: 512
avodiable miss
gcpfactor has to 0<: -132 
uncompressed size: 512
avodiable miss
gcpfactor has to 0<: -133 
uncompressed size: 512
avodiable miss
gcpfactor has to 0<: -134 
uncompressed size: 512
gcpfactor has to 0<: -134 
uncompressed size: 512
gcpfactor has to 0<: -134 
uncompressed size: 512
avodiable miss
gcpfactor has to 0<: -135 
uncompressed size: 512
gcpfactor has to 0<: -135 
uncompressed size: 512
gcpfactor has to 0<: -135 
uncompressed size: 512
avodiable miss
gcpfactor has to 0<: -136 
uncompressed size: 512
gcpfactor has to 0<: -136 
uncompressed size: 512
avodiable miss
gcpfactor has to 0<: -137 
uncompressed size: 512
gcpfactor has to 0<: -137 
uncompressed size: 512
avodiable miss
gcpfactor has to 0<: -138 
uncompressed size: 512
avodiable miss
gcpfactor has to 0<: -139 
uncompressed size: 512
unpenalized hit
update - gcpfactor: -139, compression size: 64 
gcpfactor has to 0<: -139 
uncompressed size: 512
avodiable miss
gcpfactor has to 0<: -140 
uncompressed size: 512
gcpfactor has to 0<: -140 
uncompressed size: 512
avodiable miss
gcpfactor has to 0<: -141 
uncompressed size: 512
avodiable miss
gcpfactor has to 0<: -142 
uncompressed size: 512
avodiable miss
gcpfactor has to 0<: -143 
uncompressed size: 512
gcpfactor has to 0<: -143 
uncompressed size: 512
gcpfactor has to 0<: -143 
uncompressed size: 512
gcpfactor has to 0<: -143 
uncompressed size: 512
gcpfactor has to 0<: -143 
uncompressed size: 512
gcpfactor has to 0<: -143 
uncompressed size: 512
gcpfactor has to 0<: -143 
uncompressed size: 512
avodiable miss
gcpfactor has to 0<: -144 
uncompressed size: 512
gcpfactor has to 0<: -144 
uncompressed size: 512
avodiable miss
gcpfactor has to 0<: -145 
uncompressed size: 512
avodiable miss
gcpfactor has to 0<: -146 
uncompressed size: 512
gcpfactor has to 0<: -146 
uncompressed size: 512
avodiable miss
avodiable miss
gcpfactor has to 0<: -148 
uncompressed size: 512
gcpfactor has to 0<: -148 
uncompressed size: 512
avodiable miss
gcpfactor has to 0<: -149 
uncompressed size: 512
gcpfactor has to 0<: -149 
uncompressed size: 512
avodiable miss
gcpfactor has to 0<: -150 
uncompressed size: 512
gcpfactor has to 0<: -150 
uncompressed size: 512
avodiable miss
gcpfactor has to 0<: -151 
uncompressed size: 512
gcpfactor has to 0<: -151 
uncompressed size: 512
gcpfactor has to 0<: -151 
uncompressed size: 512
avodiable miss
gcpfactor has to 0<: -152 
uncompressed size: 512
gcpfactor has to 0<: -152 
uncompressed size: 512
avodiable miss
gcpfactor has to 0<: -153 
uncompressed size: 512
gcpfactor has to 0<: -153 
uncompressed size: 512
avodiable miss
gcpfactor has to 0<: -154 
uncompressed size: 512
avodiable miss
gcpfactor has to 0<: -155 
uncompressed size: 512
gcpfactor has to 0<: -155 
uncompressed size: 512
avodiable miss
gcpfactor has to 0<: -156 
uncompressed size: 512
gcpfactor has to 0<: -156 
uncompressed size: 512
gcpfactor has to 0<: -156 
uncompressed size: 512
avodiable miss
gcpfactor has to 0<: -157 
uncompressed size: 512
gcpfactor has to 0<: -157 
uncompressed size: 512
avodiable miss
gcpfactor has to 0<: -158 
uncompressed size: 512
avodiable miss
gcpfactor has to 0<: -159 
uncompressed size: 512
avoided miss
unpenalized hit
update - gcpfactor: -160, compression size: 64 
avoided miss
unpenalized hit
update - gcpfactor: -161, compression size: 64 
gcpfactor has to 0<: -161 
uncompressed size: 512
avodiable miss
gcpfactor has to 0<: -162 
uncompressed size: 512
gcpfactor has to 0<: -162 
uncompressed size: 512
gcpfactor has to 0<: -162 
uncompressed size: 512
avodiable miss
gcpfactor has to 0<: -163 
uncompressed size: 512
gcpfactor has to 0<: -163 
uncompressed size: 512
gcpfactor has to 0<: -163 
uncompressed size: 512
gcpfactor has to 0<: -163 
uncompressed size: 512
avodiable miss
gcpfactor has to 0<: -164 
uncompressed size: 512
avodiable miss
gcpfactor has to 0<: -165 
uncompressed size: 512
gcpfactor has to 0<: -165 
uncompressed size: 512
avodiable miss
gcpfactor has to 0<: -166 
uncompressed size: 512
avodiable miss
gcpfactor has to 0<: -167 
uncompressed size: 512
avodiable miss
gcpfactor has to 0<: -168 
uncompressed size: 512
gcpfactor has to 0<: -168 
uncompressed size: 512
avodiable miss
gcpfactor has to 0<: -169 
uncompressed size: 512
gcpfactor has to 0<: -169 
uncompressed size: 512
avodiable miss
gcpfactor has to 0<: -170 
uncompressed size: 512
gcpfactor has to 0<: -170 
uncompressed size: 512
avodiable miss
gcpfactor has to 0<: -171 
uncompressed size: 512
gcpfactor has to 0<: -171 
uncompressed size: 512
avodiable miss
gcpfactor has to 0<: -172 
uncompressed size: 512
gcpfactor has to 0<: -172 
uncompressed size: 512
avodiable miss
gcpfactor has to 0<: -173 
uncompressed size: 512
gcpfactor has to 0<: -173 
uncompressed size: 512
gcpfactor has to 0<: -173 
uncompressed size: 512
avodiable miss
gcpfactor has to 0<: -174 
uncompressed size: 512
gcpfactor has to 0<: -174 
uncompressed size: 512
avodiable miss
gcpfactor has to 0<: -175 
uncompressed size: 512
gcpfactor has to 0<: -175 
uncompressed size: 512
avodiable miss
gcpfactor has to 0<: -176 
uncompressed size: 512
avodiable miss
gcpfactor has to 0<: -177 
uncompressed size: 512
avodiable miss
gcpfactor has to 0<: -178 
uncompressed size: 512
gcpfactor has to 0<: -178 
uncompressed size: 512
avodiable miss
gcpfactor has to 0<: -179 
uncompressed size: 512
gcpfactor has to 0<: -179 
uncompressed size: 512
gcpfactor has to 0<: -179 
uncompressed size: 512
gcpfactor has to 0<: -179 
uncompressed size: 512
gcpfactor has to 0<: -179 
uncompressed size: 512
gcpfactor has to 0<: -179 
uncompressed size: 512
avodiable miss
gcpfactor has to 0<: -180 
uncompressed size: 512
gcpfactor has to 0<: -180 
uncompressed size: 512
avodiable miss
gcpfactor has to 0<: -181 
uncompressed size: 512
gcpfactor has to 0<: -181 
uncompressed size: 512
gcpfactor has to 0<: -181 
uncompressed size: 512
avodiable miss
gcpfactor has to 0<: -182 
uncompressed size: 512
gcpfactor has to 0<: -182 
uncompressed size: 512
avodiable miss
gcpfactor has to 0<: -183 
uncompressed size: 512
avodiable miss
gcpfactor has to 0<: -184 
uncompressed size: 512
gcpfactor has to 0<: -184 
uncompressed size: 512
avodiable miss
gcpfactor has to 0<: -185 
uncompressed size: 512
avodiable miss
gcpfactor has to 0<: -186 
uncompressed size: 512
gcpfactor has to 0<: -186 
uncompressed size: 512
avodiable miss
gcpfactor has to 0<: -187 
uncompressed size: 512
gcpfactor has to 0<: -187 
uncompressed size: 512
unpenalized hit
avodiable miss
gcpfactor has to 0<: -188 
uncompressed size: 512
gcpfactor has to 0<: -188 
uncompressed size: 512
unpenalized hit
update - gcpfactor: -188, compression size: 64 
gcpfactor has to 0<: -188 
uncompressed size: 512
gcpfactor has to 0<: -188 
uncompressed size: 512
avodiable miss
gcpfactor has to 0<: -189 
uncompressed size: 512
gcpfactor has to 0<: -189 
uncompressed size: 512
gcpfactor has to 0<: -189 
uncompressed size: 512
gcpfactor has to 0<: -189 
uncompressed size: 512
gcpfactor has to 0<: -189 
uncompressed size: 512
gcpfactor has to 0<: -189 
uncompressed size: 512
gcpfactor has to 0<: -189 
uncompressed size: 512
avodiable miss
avodiable miss
gcpfactor has to 0<: -191 
uncompressed size: 512
gcpfactor has to 0<: -191 
uncompressed size: 512
avodiable miss
gcpfactor has to 0<: -192 
uncompressed size: 512
gcpfactor has to 0<: -192 
uncompressed size: 512
avodiable miss
gcpfactor has to 0<: -193 
uncompressed size: 512
gcpfactor has to 0<: -193 
uncompressed size: 512
gcpfactor has to 0<: -193 
uncompressed size: 512
avodiable miss
gcpfactor has to 0<: -194 
uncompressed size: 512
gcpfactor has to 0<: -194 
uncompressed size: 512
gcpfactor has to 0<: -194 
uncompressed size: 512
avodiable miss
avodiable miss
gcpfactor has to 0<: -196 
uncompressed size: 512
gcpfactor has to 0<: -196 
uncompressed size: 512
gcpfactor has to 0<: -196 
uncompressed size: 512
avodiable miss
gcpfactor has to 0<: -197 
uncompressed size: 512
gcpfactor has to 0<: -197 
uncompressed size: 512
gcpfactor has to 0<: -197 
uncompressed size: 512
gcpfactor has to 0<: -197 
uncompressed size: 512
avodiable miss
gcpfactor has to 0<: -198 
uncompressed size: 512
gcpfactor has to 0<: -198 
uncompressed size: 512
avodiable miss
gcpfactor has to 0<: -199 
uncompressed size: 512
gcpfactor has to 0<: -199 
uncompressed size: 512
gcpfactor has to 0<: -199 
uncompressed size: 512
avodiable miss
gcpfactor has to 0<: -200 
uncompressed size: 512
gcpfactor has to 0<: -200 
uncompressed size: 512
avodiable miss
gcpfactor has to 0<: -201 
uncompressed size: 512
gcpfactor has to 0<: -201 
uncompressed size: 512
avodiable miss
gcpfactor has to 0<: -202 
uncompressed size: 512
gcpfactor has to 0<: -202 
uncompressed size: 512
gcpfactor has to 0<: -202 
uncompressed size: 512
gcpfactor has to 0<: -202 
uncompressed size: 512
gcpfactor has to 0<: -202 
uncompressed size: 512
gcpfactor has to 0<: -202 
uncompressed size: 512
gcpfactor has to 0<: -202 
uncompressed size: 512
avodiable miss
gcpfactor has to 0<: -203 
uncompressed size: 512
gcpfactor has to 0<: -203 
uncompressed size: 512
avodiable miss
gcpfactor has to 0<: -204 
uncompressed size: 512
gcpfactor has to 0<: -204 
uncompressed size: 512
gcpfactor has to 0<: -204 
uncompressed size: 512
avodiable miss
gcpfactor has to 0<: -205 
uncompressed size: 512
gcpfactor has to 0<: -205 
uncompressed size: 512
gcpfactor has to 0<: -205 
uncompressed size: 512
gcpfactor has to 0<: -205 
uncompressed size: 512
avodiable miss
avodiable miss
gcpfactor has to 0<: -207 
uncompressed size: 512
gcpfactor has to 0<: -207 
uncompressed size: 512
gcpfactor has to 0<: -207 
uncompressed size: 512
gcpfactor has to 0<: -207 
uncompressed size: 512
gcpfactor has to 0<: -207 
uncompressed size: 512
gcpfactor has to 0<: -207 
uncompressed size: 512
avodiable miss
avodiable miss
gcpfactor has to 0<: -209 
uncompressed size: 512
gcpfactor has to 0<: -209 
uncompressed size: 512
gcpfactor has to 0<: -209 
uncompressed size: 512
avodiable miss
gcpfactor has to 0<: -210 
uncompressed size: 512
gcpfactor has to 0<: -210 
uncompressed size: 512
gcpfactor has to 0<: -210 
uncompressed size: 512
avodiable miss
gcpfactor has to 0<: -211 
uncompressed size: 512
gcpfactor has to 0<: -211 
uncompressed size: 512
unpenalized hit
update - gcpfactor: -211, compression size: 64 
avodiable miss
gcpfactor has to 0<: -212 
uncompressed size: 512
gcpfactor has to 0<: -212 
uncompressed size: 512
unpenalized hit
update - gcpfactor: -212, compression size: 64 
gcpfactor has to 0<: -212 
uncompressed size: 512
avodiable miss
avodiable miss
gcpfactor has to 0<: -214 
uncompressed size: 512
gcpfactor has to 0<: -214 
uncompressed size: 512
gcpfactor has to 0<: -214 
uncompressed size: 512
avodiable miss
gcpfactor has to 0<: -215 
uncompressed size: 512
gcpfactor has to 0<: -215 
uncompressed size: 512
avodiable miss
avodiable miss
gcpfactor has to 0<: -217 
uncompressed size: 512
gcpfactor has to 0<: -217 
uncompressed size: 512
gcpfactor has to 0<: -217 
uncompressed size: 512
unpenalized hit
update - gcpfactor: -217, compression size: 64 
gcpfactor has to 0<: -217 
uncompressed size: 512
avodiable miss
avodiable miss
gcpfactor has to 0<: -219 
uncompressed size: 512
gcpfactor has to 0<: -219 
uncompressed size: 512
gcpfactor has to 0<: -219 
uncompressed size: 512
gcpfactor has to 0<: -219 
uncompressed size: 512
gcpfactor has to 0<: -219 
uncompressed size: 512
gcpfactor has to 0<: -219 
uncompressed size: 512
avodiable miss
gcpfactor has to 0<: -220 
uncompressed size: 512
gcpfactor has to 0<: -220 
uncompressed size: 512
avodiable miss
gcpfactor has to 0<: -221 
uncompressed size: 512
gcpfactor has to 0<: -221 
uncompressed size: 512
avodiable miss
gcpfactor has to 0<: -222 
uncompressed size: 512
gcpfactor has to 0<: -222 
uncompressed size: 512
avodiable miss
gcpfactor has to 0<: -223 
uncompressed size: 512
gcpfactor has to 0<: -223 
uncompressed size: 512
avodiable miss
gcpfactor has to 0<: -224 
uncompressed size: 512
avodiable miss
gcpfactor has to 0<: -225 
uncompressed size: 512
gcpfactor has to 0<: -225 
uncompressed size: 512
gcpfactor has to 0<: -225 
uncompressed size: 512
avodiable miss
gcpfactor has to 0<: -226 
uncompressed size: 512
avodiable miss
gcpfactor has to 0<: -227 
uncompressed size: 512
gcpfactor has to 0<: -227 
uncompressed size: 512
gcpfactor has to 0<: -227 
uncompressed size: 512
avodiable miss
gcpfactor has to 0<: -228 
uncompressed size: 512
gcpfactor has to 0<: -228 
uncompressed size: 512
gcpfactor has to 0<: -228 
uncompressed size: 512
avodiable miss
gcpfactor has to 0<: -229 
uncompressed size: 512
gcpfactor has to 0<: -229 
uncompressed size: 512
avodiable miss
gcpfactor has to 0<: -230 
uncompressed size: 512
gcpfactor has to 0<: -230 
uncompressed size: 512
avodiable miss
gcpfactor has to 0<: -231 
uncompressed size: 512
avodiable miss
gcpfactor has to 0<: -232 
uncompressed size: 512
gcpfactor has to 0<: -232 
uncompressed size: 512
avodiable miss
gcpfactor has to 0<: -233 
uncompressed size: 512
gcpfactor has to 0<: -233 
uncompressed size: 512
avodiable miss
gcpfactor has to 0<: -234 
uncompressed size: 512
avodiable miss
gcpfactor has to 0<: -235 
uncompressed size: 512
gcpfactor has to 0<: -235 
uncompressed size: 512
avodiable miss
gcpfactor has to 0<: -236 
uncompressed size: 512
gcpfactor has to 0<: -236 
uncompressed size: 512
avodiable miss
gcpfactor has to 0<: -237 
uncompressed size: 512
gcpfactor has to 0<: -237 
uncompressed size: 512
avodiable miss
gcpfactor has to 0<: -238 
uncompressed size: 512
gcpfactor has to 0<: -238 
uncompressed size: 512
gcpfactor has to 0<: -238 
uncompressed size: 512
gcpfactor has to 0<: -238 
uncompressed size: 512
gcpfactor has to 0<: -238 
uncompressed size: 512
gcpfactor has to 0<: -238 
uncompressed size: 512
gcpfactor has to 0<: -238 
uncompressed size: 512
gcpfactor has to 0<: -238 
uncompressed size: 512
gcpfactor has to 0<: -238 
uncompressed size: 512
avodiable miss
gcpfactor has to 0<: -239 
uncompressed size: 512
avodiable miss
gcpfactor has to 0<: -240 
uncompressed size: 512
gcpfactor has to 0<: -240 
uncompressed size: 512
gcpfactor has to 0<: -240 
uncompressed size: 512
gcpfactor has to 0<: -240 
uncompressed size: 512
avodiable miss
gcpfactor has to 0<: -241 
uncompressed size: 512
gcpfactor has to 0<: -241 
uncompressed size: 512
avodiable miss
gcpfactor has to 0<: -242 
uncompressed size: 512
gcpfactor has to 0<: -242 
uncompressed size: 512
avodiable miss
gcpfactor has to 0<: -243 
uncompressed size: 512
gcpfactor has to 0<: -243 
uncompressed size: 512
gcpfactor has to 0<: -243 
uncompressed size: 512
avodiable miss
gcpfactor has to 0<: -244 
uncompressed size: 512
gcpfactor has to 0<: -244 
uncompressed size: 512
avodiable miss
gcpfactor has to 0<: -245 
uncompressed size: 512
gcpfactor has to 0<: -245 
uncompressed size: 512
gcpfactor has to 0<: -245 
uncompressed size: 512
avodiable miss
gcpfactor has to 0<: -246 
uncompressed size: 512
gcpfactor has to 0<: -246 
uncompressed size: 512
gcpfactor has to 0<: -246 
uncompressed size: 512
gcpfactor has to 0<: -246 
uncompressed size: 512
avodiable miss
gcpfactor has to 0<: -247 
uncompressed size: 512
gcpfactor has to 0<: -247 
uncompressed size: 512
avodiable miss
gcpfactor has to 0<: -248 
uncompressed size: 512
avodiable miss
gcpfactor has to 0<: -249 
uncompressed size: 512
gcpfactor has to 0<: -249 
uncompressed size: 512
avodiable miss
gcpfactor has to 0<: -250 
uncompressed size: 512
gcpfactor has to 0<: -250 
uncompressed size: 512
avodiable miss
gcpfactor has to 0<: -251 
uncompressed size: 512
gcpfactor has to 0<: -251 
uncompressed size: 512
gcpfactor has to 0<: -251 
uncompressed size: 512
avodiable miss
gcpfactor has to 0<: -252 
uncompressed size: 512
gcpfactor has to 0<: -252 
uncompressed size: 512
gcpfactor has to 0<: -252 
uncompressed size: 512
gcpfactor has to 0<: -252 
uncompressed size: 512
avodiable miss
gcpfactor has to 0<: -253 
uncompressed size: 512
avodiable miss
gcpfactor has to 0<: -254 
uncompressed size: 512
gcpfactor has to 0<: -254 
uncompressed size: 512
gcpfactor has to 0<: -254 
uncompressed size: 512
avodiable miss
gcpfactor has to 0<: -255 
uncompressed size: 512
gcpfactor has to 0<: -255 
uncompressed size: 512
avodiable miss
gcpfactor has to 0<: -256 
uncompressed size: 512
gcpfactor has to 0<: -256 
uncompressed size: 512
gcpfactor has to 0<: -256 
uncompressed size: 512
avodiable miss
gcpfactor has to 0<: -257 
uncompressed size: 512
gcpfactor has to 0<: -257 
uncompressed size: 512
gcpfactor has to 0<: -257 
uncompressed size: 512
avodiable miss
gcpfactor has to 0<: -258 
uncompressed size: 512
gcpfactor has to 0<: -258 
uncompressed size: 512
avodiable miss
gcpfactor has to 0<: -259 
uncompressed size: 512
gcpfactor has to 0<: -259 
uncompressed size: 512
avodiable miss
gcpfactor has to 0<: -260 
uncompressed size: 512
gcpfactor has to 0<: -260 
uncompressed size: 512
gcpfactor has to 0<: -260 
uncompressed size: 512
gcpfactor has to 0<: -260 
uncompressed size: 512
unpenalized hit
update - gcpfactor: -260, compression size: 64 
avodiable miss
gcpfactor has to 0<: -261 
uncompressed size: 512
unpenalized hit
update - gcpfactor: -261, compression size: 64 
gcpfactor has to 0<: -261 
uncompressed size: 512
unpenalized hit
update - gcpfactor: -261, compression size: 64 
avodiable miss
gcpfactor has to 0<: -262 
uncompressed size: 512
avodiable miss
avodiable miss
gcpfactor has to 0<: -264 
uncompressed size: 512
gcpfactor has to 0<: -264 
uncompressed size: 512
gcpfactor has to 0<: -264 
uncompressed size: 512
gcpfactor has to 0<: -264 
uncompressed size: 512
avodiable miss
gcpfactor has to 0<: -265 
uncompressed size: 512
avodiable miss
gcpfactor has to 0<: -266 
uncompressed size: 512
avodiable miss
gcpfactor has to 0<: -267 
uncompressed size: 512
avodiable miss
avodiable miss
gcpfactor has to 0<: -269 
uncompressed size: 512
avodiable miss
gcpfactor has to 0<: -270 
uncompressed size: 512
gcpfactor has to 0<: -270 
uncompressed size: 512
gcpfactor has to 0<: -270 
uncompressed size: 512
gcpfactor has to 0<: -270 
uncompressed size: 512
gcpfactor has to 0<: -270 
uncompressed size: 512
avodiable miss
avodiable miss
gcpfactor has to 0<: -272 
uncompressed size: 512
gcpfactor has to 0<: -272 
uncompressed size: 512
avodiable miss
gcpfactor has to 0<: -273 
uncompressed size: 512
gcpfactor has to 0<: -273 
uncompressed size: 512
gcpfactor has to 0<: -273 
uncompressed size: 512
gcpfactor has to 0<: -273 
uncompressed size: 512
avodiable miss
gcpfactor has to 0<: -274 
uncompressed size: 512
gcpfactor has to 0<: -274 
uncompressed size: 512
avodiable miss
gcpfactor has to 0<: -275 
uncompressed size: 512
avodiable miss
gcpfactor has to 0<: -276 
uncompressed size: 512
gcpfactor has to 0<: -276 
uncompressed size: 512
unpenalized hit
update - gcpfactor: -276, compression size: 64 
gcpfactor has to 0<: -276 
uncompressed size: 512
avodiable miss
gcpfactor has to 0<: -277 
uncompressed size: 512
avodiable miss
gcpfactor has to 0<: -278 
uncompressed size: 512
unpenalized hit
update - gcpfactor: -278, compression size: 64 
avodiable miss
gcpfactor has to 0<: -279 
uncompressed size: 512
gcpfactor has to 0<: -279 
uncompressed size: 512
unpenalized hit
update - gcpfactor: -279, compression size: 64 
gcpfactor has to 0<: -279 
uncompressed size: 512
unpenalized hit
update - gcpfactor: -279, compression size: 64 
avodiable miss
gcpfactor has to 0<: -280 
uncompressed size: 512
unpenalized hit
update - gcpfactor: -280, compression size: 64 
avodiable miss
gcpfactor has to 0<: -281 
uncompressed size: 512
gcpfactor has to 0<: -281 
uncompressed size: 512
unpenalized hit
update - gcpfactor: -281, compression size: 64 
gcpfactor has to 0<: -281 
uncompressed size: 512
unpenalized hit
update - gcpfactor: -281, compression size: 64 
avodiable miss
gcpfactor has to 0<: -282 
uncompressed size: 512
gcpfactor has to 0<: -282 
uncompressed size: 512
avodiable miss
gcpfactor has to 0<: -283 
uncompressed size: 512
unpenalized hit
update - gcpfactor: -283, compression size: 64 
avodiable miss
gcpfactor has to 0<: -284 
uncompressed size: 512
unpenalized hit
update - gcpfactor: -284, compression size: 64 
avodiable miss
gcpfactor has to 0<: -285 
uncompressed size: 512
gcpfactor has to 0<: -285 
uncompressed size: 512
unpenalized hit
update - gcpfactor: -285, compression size: 64 
avodiable miss
gcpfactor has to 0<: -286 
uncompressed size: 512
unpenalized hit
update - gcpfactor: -286, compression size: 64 
avodiable miss
gcpfactor has to 0<: -287 
uncompressed size: 512
avodiable miss
gcpfactor has to 0<: -288 
uncompressed size: 512
unpenalized hit
update - gcpfactor: -288, compression size: 64 
avodiable miss
gcpfactor has to 0<: -289 
uncompressed size: 512
avodiable miss
gcpfactor has to 0<: -290 
uncompressed size: 512
avodiable miss
gcpfactor has to 0<: -291 
uncompressed size: 512
gcpfactor has to 0<: -291 
uncompressed size: 512
avodiable miss
gcpfactor has to 0<: -292 
uncompressed size: 512
gcpfactor has to 0<: -292 
uncompressed size: 512
avodiable miss
gcpfactor has to 0<: -293 
uncompressed size: 512
gcpfactor has to 0<: -293 
uncompressed size: 512
avodiable miss
gcpfactor has to 0<: -294 
uncompressed size: 512
gcpfactor has to 0<: -294 
uncompressed size: 512
avodiable miss
gcpfactor has to 0<: -295 
uncompressed size: 512
gcpfactor has to 0<: -295 
uncompressed size: 512
gcpfactor has to 0<: -295 
uncompressed size: 512
gcpfactor has to 0<: -295 
uncompressed size: 512
avodiable miss
gcpfactor has to 0<: -296 
uncompressed size: 512
gcpfactor has to 0<: -296 
uncompressed size: 512
gcpfactor has to 0<: -296 
uncompressed size: 512
avodiable miss
gcpfactor has to 0<: -297 
uncompressed size: 512
unpenalized hit
update - gcpfactor: -297, compression size: 64 
avodiable miss
gcpfactor has to 0<: -298 
uncompressed size: 512
gcpfactor has to 0<: -298 
uncompressed size: 512
unpenalized hit
update - gcpfactor: -298, compression size: 64 
gcpfactor has to 0<: -298 
uncompressed size: 512
gcpfactor has to 0<: -298 
uncompressed size: 512
avodiable miss
gcpfactor has to 0<: -299 
uncompressed size: 512
gcpfactor has to 0<: -299 
uncompressed size: 512
avodiable miss
gcpfactor has to 0<: -300 
uncompressed size: 512
avodiable miss
gcpfactor has to 0<: -301 
uncompressed size: 512
avodiable miss
gcpfactor has to 0<: -302 
uncompressed size: 512
avodiable miss
gcpfactor has to 0<: -303 
uncompressed size: 512
gcpfactor has to 0<: -303 
uncompressed size: 512
gcpfactor has to 0<: -303 
uncompressed size: 512
gcpfactor has to 0<: -303 
uncompressed size: 512
unpenalized hit
update - gcpfactor: -303, compression size: 64 
gcpfactor has to 0<: -303 
uncompressed size: 512
gcpfactor has to 0<: -303 
uncompressed size: 512
avodiable miss
gcpfactor has to 0<: -304 
uncompressed size: 512
gcpfactor has to 0<: -304 
uncompressed size: 512
avodiable miss
gcpfactor has to 0<: -305 
uncompressed size: 512
gcpfactor has to 0<: -305 
uncompressed size: 512
avodiable miss
gcpfactor has to 0<: -306 
uncompressed size: 512
avodiable miss
gcpfactor has to 0<: -307 
uncompressed size: 512
gcpfactor has to 0<: -307 
uncompressed size: 512
avodiable miss
gcpfactor has to 0<: -308 
uncompressed size: 512
gcpfactor has to 0<: -308 
uncompressed size: 512
avodiable miss
gcpfactor has to 0<: -309 
uncompressed size: 512
gcpfactor has to 0<: -309 
uncompressed size: 512
gcpfactor has to 0<: -309 
uncompressed size: 512
gcpfactor has to 0<: -309 
uncompressed size: 512
avodiable miss
gcpfactor has to 0<: -310 
uncompressed size: 512
gcpfactor has to 0<: -310 
uncompressed size: 512
avodiable miss
gcpfactor has to 0<: -311 
uncompressed size: 512
gcpfactor has to 0<: -311 
uncompressed size: 512
avodiable miss
gcpfactor has to 0<: -312 
uncompressed size: 512
avodiable miss
gcpfactor has to 0<: -313 
uncompressed size: 512
avodiable miss
gcpfactor has to 0<: -314 
uncompressed size: 512
avodiable miss
gcpfactor has to 0<: -315 
uncompressed size: 512
avodiable miss
gcpfactor has to 0<: -316 
uncompressed size: 512
avodiable miss
gcpfactor has to 0<: -317 
uncompressed size: 512
gcpfactor has to 0<: -317 
uncompressed size: 512
gcpfactor has to 0<: -317 
uncompressed size: 512
gcpfactor has to 0<: -317 
uncompressed size: 512
gcpfactor has to 0<: -317 
uncompressed size: 512
avodiable miss
gcpfactor has to 0<: -318 
uncompressed size: 512
avodiable miss
gcpfactor has to 0<: -319 
uncompressed size: 512
avodiable miss
gcpfactor has to 0<: -320 
uncompressed size: 512
avodiable miss
gcpfactor has to 0<: -321 
uncompressed size: 512
avodiable miss
gcpfactor has to 0<: -322 
uncompressed size: 512
gcpfactor has to 0<: -322 
uncompressed size: 512
gcpfactor has to 0<: -322 
uncompressed size: 512
unpenalized hit
update - gcpfactor: -322, compression size: 64 
avodiable miss
gcpfactor has to 0<: -323 
uncompressed size: 512
avodiable miss
gcpfactor has to 0<: -324 
uncompressed size: 512
avodiable miss
gcpfactor has to 0<: -325 
uncompressed size: 512
gcpfactor has to 0<: -325 
uncompressed size: 512
avodiable miss
gcpfactor has to 0<: -326 
uncompressed size: 512
gcpfactor has to 0<: -326 
uncompressed size: 512
gcpfactor has to 0<: -326 
uncompressed size: 512
avodiable miss
gcpfactor has to 0<: -327 
uncompressed size: 512
gcpfactor has to 0<: -327 
uncompressed size: 512
avodiable miss
gcpfactor has to 0<: -328 
uncompressed size: 512
gcpfactor has to 0<: -328 
uncompressed size: 512
unpenalized hit
update - gcpfactor: -328, compression size: 64 
avodiable miss
gcpfactor has to 0<: -329 
uncompressed size: 512
unpenalized hit
update - gcpfactor: -329, compression size: 64 
avodiable miss
gcpfactor has to 0<: -330 
uncompressed size: 512
unpenalized hit
update - gcpfactor: -330, compression size: 64 
gcpfactor has to 0<: -330 
uncompressed size: 512
avodiable miss
gcpfactor has to 0<: -331 
uncompressed size: 512
avodiable miss
gcpfactor has to 0<: -332 
uncompressed size: 512
unpenalized hit
update - gcpfactor: -332, compression size: 64 
avodiable miss
gcpfactor has to 0<: -333 
uncompressed size: 512
avodiable miss
gcpfactor has to 0<: -334 
uncompressed size: 512
avodiable miss
gcpfactor has to 0<: -335 
uncompressed size: 512
avodiable miss
gcpfactor has to 0<: -336 
uncompressed size: 512
avodiable miss
gcpfactor has to 0<: -337 
uncompressed size: 512
avodiable miss
gcpfactor has to 0<: -338 
uncompressed size: 512
avodiable miss
gcpfactor has to 0<: -339 
uncompressed size: 512
avodiable miss
gcpfactor has to 0<: -340 
uncompressed size: 512
gcpfactor has to 0<: -340 
uncompressed size: 512
avodiable miss
gcpfactor has to 0<: -341 
uncompressed size: 512
unpenalized hit
update - gcpfactor: -341, compression size: 64 
avodiable miss
gcpfactor has to 0<: -342 
uncompressed size: 512
unpenalized hit
update - gcpfactor: -342, compression size: 64 
avodiable miss
gcpfactor has to 0<: -343 
uncompressed size: 512
unpenalized hit
update - gcpfactor: -343, compression size: 64 
gcpfactor has to 0<: -343 
uncompressed size: 512
unpenalized hit
update - gcpfactor: -343, compression size: 64 
avodiable miss
gcpfactor has to 0<: -344 
uncompressed size: 512
unpenalized hit
update - gcpfactor: -344, compression size: 64 
gcpfactor has to 0<: -344 
uncompressed size: 512
avodiable miss
gcpfactor has to 0<: -345 
uncompressed size: 512
avodiable miss
gcpfactor has to 0<: -346 
uncompressed size: 512
avodiable miss
gcpfactor has to 0<: -347 
uncompressed size: 512
avodiable miss
gcpfactor has to 0<: -348 
uncompressed size: 512
unpenalized hit
update - gcpfactor: -348, compression size: 64 
gcpfactor has to 0<: -348 
uncompressed size: 512
unpenalized hit
update - gcpfactor: -348, compression size: 64 
avodiable miss
gcpfactor has to 0<: -349 
uncompressed size: 512
unpenalized hit
update - gcpfactor: -349, compression size: 64 
avodiable miss
gcpfactor has to 0<: -350 
uncompressed size: 512
unpenalized hit
update - gcpfactor: -350, compression size: 64 
gcpfactor has to 0<: -350 
uncompressed size: 512
unpenalized hit
update - gcpfactor: -350, compression size: 64 
gcpfactor has to 0<: -350 
uncompressed size: 512
unpenalized hit
update - gcpfactor: -350, compression size: 64 
avodiable miss
gcpfactor has to 0<: -351 
uncompressed size: 512
unpenalized hit
update - gcpfactor: -351, compression size: 64 
gcpfactor has to 0<: -351 
uncompressed size: 512
unpenalized hit
update - gcpfactor: -351, compression size: 64 
avodiable miss
gcpfactor has to 0<: -352 
uncompressed size: 512
unpenalized hit
update - gcpfactor: -352, compression size: 64 
gcpfactor has to 0<: -352 
uncompressed size: 512
unpenalized hit
update - gcpfactor: -352, compression size: 64 
gcpfactor has to 0<: -352 
uncompressed size: 512
gcpfactor has to 0<: -352 
uncompressed size: 512
avodiable miss
gcpfactor has to 0<: -353 
uncompressed size: 512
avodiable miss
gcpfactor has to 0<: -354 
uncompressed size: 512
gcpfactor has to 0<: -354 
uncompressed size: 512
avodiable miss
gcpfactor has to 0<: -355 
uncompressed size: 512
gcpfactor has to 0<: -355 
uncompressed size: 512
avodiable miss
gcpfactor has to 0<: -356 
uncompressed size: 512
gcpfactor has to 0<: -356 
uncompressed size: 512
avodiable miss
gcpfactor has to 0<: -357 
uncompressed size: 512
avodiable miss
gcpfactor has to 0<: -358 
uncompressed size: 512
unpenalized hit
update - gcpfactor: -358, compression size: 64 
gcpfactor has to 0<: -358 
uncompressed size: 512
avodiable miss
gcpfactor has to 0<: -359 
uncompressed size: 512
gcpfactor has to 0<: -359 
uncompressed size: 512
unpenalized hit
update - gcpfactor: -359, compression size: 64 
avodiable miss
gcpfactor has to 0<: -360 
uncompressed size: 512
unpenalized hit
update - gcpfactor: -360, compression size: 64 
gcpfactor has to 0<: -360 
uncompressed size: 512
unpenalized hit
update - gcpfactor: -360, compression size: 64 
gcpfactor has to 0<: -360 
uncompressed size: 512
unpenalized hit
update - gcpfactor: -360, compression size: 64 
avodiable miss
gcpfactor has to 0<: -361 
uncompressed size: 512
gcpfactor has to 0<: -361 
uncompressed size: 512
unpenalized hit
update - gcpfactor: -361, compression size: 64 
avodiable miss
gcpfactor has to 0<: -362 
uncompressed size: 512
unpenalized hit
update - gcpfactor: -362, compression size: 64 
avodiable miss
gcpfactor has to 0<: -363 
uncompressed size: 512
avodiable miss
gcpfactor has to 0<: -364 
uncompressed size: 512
unpenalized hit
update - gcpfactor: -364, compression size: 64 
gcpfactor has to 0<: -364 
uncompressed size: 512
avodiable miss
gcpfactor has to 0<: -365 
uncompressed size: 512
gcpfactor has to 0<: -365 
uncompressed size: 512
unpenalized hit
update - gcpfactor: -365, compression size: 64 
avodiable miss
gcpfactor has to 0<: -366 
uncompressed size: 512
unpenalized hit
update - gcpfactor: -366, compression size: 64 
gcpfactor has to 0<: -366 
uncompressed size: 512
unpenalized hit
update - gcpfactor: -366, compression size: 64 
gcpfactor has to 0<: -366 
uncompressed size: 512
unpenalized hit
update - gcpfactor: -366, compression size: 64 
avodiable miss
gcpfactor has to 0<: -367 
uncompressed size: 512
gcpfactor has to 0<: -367 
uncompressed size: 512
unpenalized hit
update - gcpfactor: -367, compression size: 64 
gcpfactor has to 0<: -367 
uncompressed size: 512
avodiable miss
gcpfactor has to 0<: -368 
uncompressed size: 512
avodiable miss
gcpfactor has to 0<: -369 
uncompressed size: 512
gcpfactor has to 0<: -369 
uncompressed size: 512
avodiable miss
gcpfactor has to 0<: -370 
uncompressed size: 512
gcpfactor has to 0<: -370 
uncompressed size: 512
avodiable miss
gcpfactor has to 0<: -371 
uncompressed size: 512
gcpfactor has to 0<: -371 
uncompressed size: 512
gcpfactor has to 0<: -371 
uncompressed size: 512
gcpfactor has to 0<: -371 
uncompressed size: 512
avodiable miss
gcpfactor has to 0<: -372 
uncompressed size: 512
avodiable miss
gcpfactor has to 0<: -373 
uncompressed size: 512
gcpfactor has to 0<: -373 
uncompressed size: 512
gcpfactor has to 0<: -373 
uncompressed size: 512
avodiable miss
gcpfactor has to 0<: -374 
uncompressed size: 512
gcpfactor has to 0<: -374 
uncompressed size: 512
avodiable miss
gcpfactor has to 0<: -375 
uncompressed size: 512
gcpfactor has to 0<: -375 
uncompressed size: 512
avodiable miss
gcpfactor has to 0<: -376 
uncompressed size: 512
avodiable miss
gcpfactor has to 0<: -377 
uncompressed size: 512
gcpfactor has to 0<: -377 
uncompressed size: 512
gcpfactor has to 0<: -377 
uncompressed size: 512
gcpfactor has to 0<: -377 
uncompressed size: 512
gcpfactor has to 0<: -377 
uncompressed size: 512
gcpfactor has to 0<: -377 
uncompressed size: 512
avodiable miss
gcpfactor has to 0<: -378 
uncompressed size: 512
gcpfactor has to 0<: -378 
uncompressed size: 512
gcpfactor has to 0<: -378 
uncompressed size: 512
gcpfactor has to 0<: -378 
uncompressed size: 512
avodiable miss
gcpfactor has to 0<: -379 
uncompressed size: 512
gcpfactor has to 0<: -379 
uncompressed size: 512
gcpfactor has to 0<: -379 
uncompressed size: 512
gcpfactor has to 0<: -379 
uncompressed size: 512
avodiable miss
gcpfactor has to 0<: -380 
uncompressed size: 512
gcpfactor has to 0<: -380 
uncompressed size: 512
avodiable miss
gcpfactor has to 0<: -381 
uncompressed size: 512
gcpfactor has to 0<: -381 
uncompressed size: 512
gcpfactor has to 0<: -381 
uncompressed size: 512
avodiable miss
gcpfactor has to 0<: -382 
uncompressed size: 512
gcpfactor has to 0<: -382 
uncompressed size: 512
avodiable miss
gcpfactor has to 0<: -383 
uncompressed size: 512
gcpfactor has to 0<: -383 
uncompressed size: 512
avodiable miss
gcpfactor has to 0<: -384 
uncompressed size: 512
gcpfactor has to 0<: -384 
uncompressed size: 512
gcpfactor has to 0<: -384 
uncompressed size: 512
gcpfactor has to 0<: -384 
uncompressed size: 512
avodiable miss
gcpfactor has to 0<: -385 
uncompressed size: 512
gcpfactor has to 0<: -385 
uncompressed size: 512
avodiable miss
gcpfactor has to 0<: -386 
uncompressed size: 512
gcpfactor has to 0<: -386 
uncompressed size: 512
gcpfactor has to 0<: -386 
uncompressed size: 512
avodiable miss
gcpfactor has to 0<: -387 
uncompressed size: 512
avodiable miss
gcpfactor has to 0<: -388 
uncompressed size: 512
gcpfactor has to 0<: -388 
uncompressed size: 512
avodiable miss
gcpfactor has to 0<: -389 
uncompressed size: 512
gcpfactor has to 0<: -389 
uncompressed size: 512
avodiable miss
gcpfactor has to 0<: -390 
uncompressed size: 512
gcpfactor has to 0<: -390 
uncompressed size: 512
avodiable miss
gcpfactor has to 0<: -391 
uncompressed size: 512
gcpfactor has to 0<: -391 
uncompressed size: 512
avodiable miss
gcpfactor has to 0<: -392 
uncompressed size: 512
gcpfactor has to 0<: -392 
uncompressed size: 512
avodiable miss
gcpfactor has to 0<: -393 
uncompressed size: 512
gcpfactor has to 0<: -393 
uncompressed size: 512
avodiable miss
gcpfactor has to 0<: -394 
uncompressed size: 512
gcpfactor has to 0<: -394 
uncompressed size: 512
avodiable miss
gcpfactor has to 0<: -395 
uncompressed size: 512
gcpfactor has to 0<: -395 
uncompressed size: 512
gcpfactor has to 0<: -395 
uncompressed size: 512
gcpfactor has to 0<: -395 
uncompressed size: 512
avodiable miss
gcpfactor has to 0<: -396 
uncompressed size: 512
gcpfactor has to 0<: -396 
uncompressed size: 512
gcpfactor has to 0<: -396 
uncompressed size: 512
gcpfactor has to 0<: -396 
uncompressed size: 512
gcpfactor has to 0<: -396 
uncompressed size: 512
gcpfactor has to 0<: -396 
uncompressed size: 512
gcpfactor has to 0<: -396 
uncompressed size: 512
avodiable miss
gcpfactor has to 0<: -397 
uncompressed size: 512
gcpfactor has to 0<: -397 
uncompressed size: 512
gcpfactor has to 0<: -397 
uncompressed size: 512
avodiable miss
gcpfactor has to 0<: -398 
uncompressed size: 512
gcpfactor has to 0<: -398 
uncompressed size: 512
avodiable miss
gcpfactor has to 0<: -399 
uncompressed size: 512
gcpfactor has to 0<: -399 
uncompressed size: 512
avodiable miss
gcpfactor has to 0<: -400 
uncompressed size: 512
gcpfactor has to 0<: -400 
uncompressed size: 512
gcpfactor has to 0<: -400 
uncompressed size: 512
gcpfactor has to 0<: -400 
uncompressed size: 512
avodiable miss
gcpfactor has to 0<: -401 
uncompressed size: 512
avodiable miss
gcpfactor has to 0<: -402 
uncompressed size: 512
gcpfactor has to 0<: -402 
uncompressed size: 512
avodiable miss
gcpfactor has to 0<: -403 
uncompressed size: 512
gcpfactor has to 0<: -403 
uncompressed size: 512
gcpfactor has to 0<: -403 
uncompressed size: 512
gcpfactor has to 0<: -403 
uncompressed size: 512
avodiable miss
gcpfactor has to 0<: -404 
uncompressed size: 512
avodiable miss
gcpfactor has to 0<: -405 
uncompressed size: 512
gcpfactor has to 0<: -405 
uncompressed size: 512
gcpfactor has to 0<: -405 
uncompressed size: 512
avodiable miss
gcpfactor has to 0<: -406 
uncompressed size: 512
gcpfactor has to 0<: -406 
uncompressed size: 512
avodiable miss
gcpfactor has to 0<: -407 
uncompressed size: 512
gcpfactor has to 0<: -407 
uncompressed size: 512
avodiable miss
gcpfactor has to 0<: -408 
uncompressed size: 512
gcpfactor has to 0<: -408 
uncompressed size: 512
avodiable miss
gcpfactor has to 0<: -409 
uncompressed size: 512
gcpfactor has to 0<: -409 
uncompressed size: 512
avodiable miss
gcpfactor has to 0<: -410 
uncompressed size: 512
gcpfactor has to 0<: -410 
uncompressed size: 512
gcpfactor has to 0<: -410 
uncompressed size: 512
gcpfactor has to 0<: -410 
uncompressed size: 512
avodiable miss
gcpfactor has to 0<: -411 
uncompressed size: 512
avodiable miss
gcpfactor has to 0<: -412 
uncompressed size: 512
avodiable miss
gcpfactor has to 0<: -413 
uncompressed size: 512
gcpfactor has to 0<: -413 
uncompressed size: 512
avodiable miss
gcpfactor has to 0<: -414 
uncompressed size: 512
gcpfactor has to 0<: -414 
uncompressed size: 512
gcpfactor has to 0<: -414 
uncompressed size: 512
gcpfactor has to 0<: -414 
uncompressed size: 512
gcpfactor has to 0<: -414 
uncompressed size: 512
avodiable miss
gcpfactor has to 0<: -415 
uncompressed size: 512
gcpfactor has to 0<: -415 
uncompressed size: 512
gcpfactor has to 0<: -415 
uncompressed size: 512
unpenalized hit
update - gcpfactor: -415, compression size: 64 
avodiable miss
gcpfactor has to 0<: -416 
uncompressed size: 512
gcpfactor has to 0<: -416 
uncompressed size: 512
unpenalized hit
update - gcpfactor: -416, compression size: 64 
gcpfactor has to 0<: -416 
uncompressed size: 512
avodiable miss
gcpfactor has to 0<: -417 
uncompressed size: 512
gcpfactor has to 0<: -417 
uncompressed size: 512
gcpfactor has to 0<: -417 
uncompressed size: 512
avodiable miss
gcpfactor has to 0<: -418 
uncompressed size: 512
gcpfactor has to 0<: -418 
uncompressed size: 512
unpenalized hit
update - gcpfactor: -418, compression size: 64 
gcpfactor has to 0<: -418 
uncompressed size: 512
unpenalized hit
update - gcpfactor: -418, compression size: 64 
gcpfactor has to 0<: -418 
uncompressed size: 512
avodiable miss
gcpfactor has to 0<: -419 
uncompressed size: 512
avodiable miss
gcpfactor has to 0<: -420 
uncompressed size: 512
unpenalized hit
update - gcpfactor: -420, compression size: 64 
gcpfactor has to 0<: -420 
uncompressed size: 512
avodiable miss
gcpfactor has to 0<: -421 
uncompressed size: 512
gcpfactor has to 0<: -421 
uncompressed size: 512
avodiable miss
gcpfactor has to 0<: -422 
uncompressed size: 512
gcpfactor has to 0<: -422 
uncompressed size: 512
avodiable miss
gcpfactor has to 0<: -423 
uncompressed size: 512
gcpfactor has to 0<: -423 
uncompressed size: 512
gcpfactor has to 0<: -423 
uncompressed size: 512
unpenalized hit
update - gcpfactor: -423, compression size: 64 
avodiable miss
gcpfactor has to 0<: -424 
uncompressed size: 512
unpenalized hit
update - gcpfactor: -424, compression size: 64 
avodiable miss
gcpfactor has to 0<: -425 
uncompressed size: 512
gcpfactor has to 0<: -425 
uncompressed size: 512
gcpfactor has to 0<: -425 
uncompressed size: 512
gcpfactor has to 0<: -425 
uncompressed size: 512
gcpfactor has to 0<: -425 
uncompressed size: 512
unpenalized hit
update - gcpfactor: -425, compression size: 64 
avodiable miss
gcpfactor has to 0<: -426 
uncompressed size: 512
unpenalized hit
update - gcpfactor: -426, compression size: 64 
gcpfactor has to 0<: -426 
uncompressed size: 512
unpenalized hit
update - gcpfactor: -426, compression size: 64 
avodiable miss
gcpfactor has to 0<: -427 
uncompressed size: 512
gcpfactor has to 0<: -427 
uncompressed size: 512
unpenalized hit
update - gcpfactor: -427, compression size: 64 
avodiable miss
gcpfactor has to 0<: -428 
uncompressed size: 512
unpenalized hit
update - gcpfactor: -428, compression size: 64 
gcpfactor has to 0<: -428 
uncompressed size: 512
unpenalized hit
update - gcpfactor: -428, compression size: 64 
avodiable miss
gcpfactor has to 0<: -429 
uncompressed size: 512
unpenalized hit
update - gcpfactor: -429, compression size: 64 
gcpfactor has to 0<: -429 
uncompressed size: 512
avodiable miss
gcpfactor has to 0<: -430 
uncompressed size: 512
gcpfactor has to 0<: -430 
uncompressed size: 512
avodiable miss
gcpfactor has to 0<: -431 
uncompressed size: 512
gcpfactor has to 0<: -431 
uncompressed size: 512
unpenalized hit
update - gcpfactor: -431, compression size: 64 
avodiable miss
gcpfactor has to 0<: -432 
uncompressed size: 512
unpenalized hit
update - gcpfactor: -432, compression size: 64 
gcpfactor has to 0<: -432 
uncompressed size: 512
unpenalized hit
update - gcpfactor: -432, compression size: 64 
avodiable miss
gcpfactor has to 0<: -433 
uncompressed size: 512
gcpfactor has to 0<: -433 
uncompressed size: 512
avodiable miss
gcpfactor has to 0<: -434 
uncompressed size: 512
gcpfactor has to 0<: -434 
uncompressed size: 512
avodiable miss
gcpfactor has to 0<: -435 
uncompressed size: 512
gcpfactor has to 0<: -435 
uncompressed size: 512
gcpfactor has to 0<: -435 
uncompressed size: 512
gcpfactor has to 0<: -435 
uncompressed size: 512
gcpfactor has to 0<: -435 
uncompressed size: 512
avodiable miss
gcpfactor has to 0<: -436 
uncompressed size: 512
avodiable miss
gcpfactor has to 0<: -437 
uncompressed size: 512
gcpfactor has to 0<: -437 
uncompressed size: 512
gcpfactor has to 0<: -437 
uncompressed size: 512
unpenalized hit
update - gcpfactor: -437, compression size: 64 
avodiable miss
gcpfactor has to 0<: -438 
uncompressed size: 512
unpenalized hit
update - gcpfactor: -438, compression size: 64 
gcpfactor has to 0<: -438 
uncompressed size: 512
unpenalized hit
update - gcpfactor: -438, compression size: 64 
avodiable miss
gcpfactor has to 0<: -439 
uncompressed size: 512
penalized hit
unpenalized hit
update - gcpfactor: -438, compression size: 64 
avoided miss
unpenalized hit
update - gcpfactor: -439, compression size: 64 
avoided miss
unpenalized hit
update - gcpfactor: -440, compression size: 64 
avoided miss
unpenalized hit
update - gcpfactor: -441, compression size: 64 
gcpfactor has to 0<: -441 
uncompressed size: 512
gcpfactor has to 0<: -441 
uncompressed size: 512
gcpfactor has to 0<: -441 
uncompressed size: 512
unpenalized hit
update - gcpfactor: -441, compression size: 64 
gcpfactor has to 0<: -441 
uncompressed size: 512
avodiable miss
gcpfactor has to 0<: -442 
uncompressed size: 512
gcpfactor has to 0<: -442 
uncompressed size: 512
avoided miss
unpenalized hit
update - gcpfactor: -443, compression size: 64 
avoided miss
unpenalized hit
update - gcpfactor: -444, compression size: 64 
penalized hit
unpenalized hit
update - gcpfactor: -443, compression size: 64 
avodiable miss
avodiable miss
gcpfactor has to 0<: -445 
uncompressed size: 512
gcpfactor has to 0<: -445 
uncompressed size: 512
gcpfactor has to 0<: -445 
uncompressed size: 512
gcpfactor has to 0<: -445 
uncompressed size: 512
gcpfactor has to 0<: -445 
uncompressed size: 512
avodiable miss
gcpfactor has to 0<: -446 
uncompressed size: 512
avodiable miss
gcpfactor has to 0<: -447 
uncompressed size: 512
gcpfactor has to 0<: -447 
uncompressed size: 512
gcpfactor has to 0<: -447 
uncompressed size: 512
gcpfactor has to 0<: -447 
uncompressed size: 512
unpenalized hit
update - gcpfactor: -447, compression size: 64 
avodiable miss
gcpfactor has to 0<: -448 
uncompressed size: 512
gcpfactor has to 0<: -448 
uncompressed size: 512
unpenalized hit
update - gcpfactor: -448, compression size: 64 
gcpfactor has to 0<: -448 
uncompressed size: 512
unpenalized hit
update - gcpfactor: -448, compression size: 64 
gcpfactor has to 0<: -448 
uncompressed size: 512
avodiable miss
avodiable miss
gcpfactor has to 0<: -450 
uncompressed size: 512
gcpfactor has to 0<: -450 
uncompressed size: 512
unpenalized hit
update - gcpfactor: -450, compression size: 64 
gcpfactor has to 0<: -450 
uncompressed size: 512
unpenalized hit
update - gcpfactor: -450, compression size: 64 
gcpfactor has to 0<: -450 
uncompressed size: 512
unpenalized hit
update - gcpfactor: -450, compression size: 64 
avodiable miss
gcpfactor has to 0<: -451 
uncompressed size: 512
gcpfactor has to 0<: -451 
uncompressed size: 512
avodiable miss
gcpfactor has to 0<: -452 
uncompressed size: 512
avodiable miss
gcpfactor has to 0<: -453 
uncompressed size: 512
gcpfactor has to 0<: -453 
uncompressed size: 512
avodiable miss
gcpfactor has to 0<: -454 
uncompressed size: 512
gcpfactor has to 0<: -454 
uncompressed size: 512
avodiable miss
gcpfactor has to 0<: -455 
uncompressed size: 512
gcpfactor has to 0<: -455 
uncompressed size: 512
avodiable miss
gcpfactor has to 0<: -456 
uncompressed size: 512
gcpfactor has to 0<: -456 
uncompressed size: 512
gcpfactor has to 0<: -456 
uncompressed size: 512
gcpfactor has to 0<: -456 
uncompressed size: 512
avodiable miss
gcpfactor has to 0<: -457 
uncompressed size: 512
gcpfactor has to 0<: -457 
uncompressed size: 512
avodiable miss
avodiable miss
gcpfactor has to 0<: -459 
uncompressed size: 512
gcpfactor has to 0<: -459 
uncompressed size: 512
gcpfactor has to 0<: -459 
uncompressed size: 512
unpenalized hit
update - gcpfactor: -459, compression size: 64 
avodiable miss
gcpfactor has to 0<: -460 
uncompressed size: 512
unpenalized hit
update - gcpfactor: -460, compression size: 64 
avodiable miss
gcpfactor has to 0<: -461 
uncompressed size: 512
unpenalized hit
update - gcpfactor: -461, compression size: 64 
gcpfactor has to 0<: -461 
uncompressed size: 512
avodiable miss
gcpfactor has to 0<: -462 
uncompressed size: 512
gcpfactor has to 0<: -462 
uncompressed size: 512
avodiable miss
gcpfactor has to 0<: -463 
uncompressed size: 512
gcpfactor has to 0<: -463 
uncompressed size: 512
avodiable miss
gcpfactor has to 0<: -464 
uncompressed size: 512
gcpfactor has to 0<: -464 
uncompressed size: 512
unpenalized hit
update - gcpfactor: -464, compression size: 64 
avodiable miss
gcpfactor has to 0<: -465 
uncompressed size: 512
gcpfactor has to 0<: -465 
uncompressed size: 512
avodiable miss
gcpfactor has to 0<: -466 
uncompressed size: 512
unpenalized hit
update - gcpfactor: -466, compression size: 64 
gcpfactor has to 0<: -466 
uncompressed size: 512
gcpfactor has to 0<: -466 
uncompressed size: 512
avodiable miss
gcpfactor has to 0<: -467 
uncompressed size: 512
gcpfactor has to 0<: -467 
uncompressed size: 512
avodiable miss
gcpfactor has to 0<: -468 
uncompressed size: 512
gcpfactor has to 0<: -468 
uncompressed size: 512
gcpfactor has to 0<: -468 
uncompressed size: 512
gcpfactor has to 0<: -468 
uncompressed size: 512
gcpfactor has to 0<: -468 
uncompressed size: 512
unpenalized hit
update - gcpfactor: -468, compression size: 64 
avodiable miss
gcpfactor has to 0<: -469 
uncompressed size: 512
avodiable miss
gcpfactor has to 0<: -470 
uncompressed size: 512
unpenalized hit
update - gcpfactor: -470, compression size: 64 
unpenalized hit
unpenalized hit
unpenalized hit
unpenalized hit
update - gcpfactor: -470, compression size: 64 
unpenalized hit
update - gcpfactor: -470, compression size: 64 
unpenalized hit
avodiable miss
avodiable miss
unpenalized hit
update - gcpfactor: -472, compression size: 64 
unpenalized hit
unpenalized hit
unpenalized hit
unpenalized hit
unpenalized hit
unpenalized hit
update - gcpfactor: -472, compression size: 64 
unpenalized hit
avodiable miss
avodiable miss
avodiable miss
avodiable miss
avodiable miss
avodiable miss
avodiable miss
avodiable miss
avodiable miss
avodiable miss
avodiable miss
avodiable miss
avodiable miss
avodiable miss
avodiable miss
avodiable miss
avodiable miss
avodiable miss
avodiable miss
avodiable miss
avodiable miss
avodiable miss
avodiable miss
avodiable miss
avodiable miss
avodiable miss
avodiable miss
avodiable miss
avodiable miss
avodiable miss
avodiable miss
avodiable miss
avodiable miss
avodiable miss
avodiable miss
avodiable miss
avodiable miss
avodiable miss
avodiable miss
avodiable miss
avodiable miss
avodiable miss
avodiable miss
avodiable miss
avodiable miss
avodiable miss
avodiable miss
avodiable miss
unpenalized hit
unpenalized hit
unpenalized hit
avodiable miss
avodiable miss
unpenalized hit
unpenalized hit
update - gcpfactor: -522, compression size: 64 
unpenalized hit
update - gcpfactor: -522, compression size: 64 
avodiable miss
avodiable miss
avodiable miss
avodiable miss
unpenalized hit
avodiable miss
avodiable miss
unpenalized hit
unpenalized hit
update - gcpfactor: -528, compression size: 64 
avodiable miss
avodiable miss
avodiable miss
avodiable miss
avodiable miss
avodiable miss
avodiable miss
avodiable miss
avodiable miss
avodiable miss
avodiable miss
avodiable miss
avodiable miss
avodiable miss
avodiable miss
avodiable miss
avodiable miss
avodiable miss
avodiable miss
avodiable miss
avodiable miss
avodiable miss
avodiable miss
avodiable miss
avodiable miss
avodiable miss
avodiable miss
avodiable miss
avodiable miss
avodiable miss
avodiable miss
avodiable miss
avodiable miss
avodiable miss
avodiable miss
avodiable miss
avodiable miss
avodiable miss
avodiable miss
avodiable miss
avodiable miss
avodiable miss
avodiable miss
avodiable miss
unpenalized hit
avodiable miss
avodiable miss
avodiable miss
avodiable miss
avodiable miss
avodiable miss
avodiable miss
avodiable miss
avodiable miss
avodiable miss
unpenalized hit
update - gcpfactor: -582, compression size: 64 
avodiable miss
avodiable miss
avodiable miss
avodiable miss
avodiable miss
avodiable miss
avodiable miss
avodiable miss
avodiable miss
avodiable miss
avodiable miss
avodiable miss
avodiable miss
avodiable miss
avodiable miss
avodiable miss
avodiable miss
avodiable miss
avodiable miss
avodiable miss
avodiable miss
avodiable miss
avodiable miss
avodiable miss
avodiable miss
avodiable miss
unpenalized hit
update - gcpfactor: -608, compression size: 64 
unpenalized hit
update - gcpfactor: -608, compression size: 64 
unpenalized hit
update - gcpfactor: -608, compression size: 64 
unpenalized hit
update - gcpfactor: -608, compression size: 64 
unpenalized hit
update - gcpfactor: -608, compression size: 64 
unpenalized hit
update - gcpfactor: -608, compression size: 64 
unpenalized hit
update - gcpfactor: -608, compression size: 64 
unpenalized hit
update - gcpfactor: -608, compression size: 64 
unpenalized hit
update - gcpfactor: -608, compression size: 64 
unpenalized hit
update - gcpfactor: -608, compression size: 64 
unpenalized hit
update - gcpfactor: -608, compression size: 64 
unpenalized hit
unpenalized hit
unpenalized hit
update - gcpfactor: -608, compression size: 64 
unpenalized hit
update - gcpfactor: -608, compression size: 64 
unpenalized hit
unpenalized hit
update - gcpfactor: -608, compression size: 64 
unpenalized hit
update - gcpfactor: -608, compression size: 64 
unpenalized hit
avodiable miss
unpenalized hit
update - gcpfactor: -609, compression size: 64 
avodiable miss
avodiable miss
unpenalized hit
update - gcpfactor: -611, compression size: 64 
avodiable miss
avodiable miss
unpenalized hit
update - gcpfactor: -613, compression size: 64 
unpenalized hit
update - gcpfactor: -613, compression size: 64 
avodiable miss
unpenalized hit
update - gcpfactor: -614, compression size: 64 
unpenalized hit
update - gcpfactor: -614, compression size: 64 
avodiable miss
unpenalized hit
update - gcpfactor: -615, compression size: 64 
unpenalized hit
update - gcpfactor: -615, compression size: 64 
avodiable miss
unpenalized hit
update - gcpfactor: -616, compression size: 64 
unpenalized hit
update - gcpfactor: -616, compression size: 64 
avodiable miss
unpenalized hit
update - gcpfactor: -617, compression size: 64 
unpenalized hit
update - gcpfactor: -617, compression size: 64 
unpenalized hit
unpenalized hit
avodiable miss
unpenalized hit
unpenalized hit
update - gcpfactor: -618, compression size: 64 
unpenalized hit
unpenalized hit
unpenalized hit
unpenalized hit
avodiable miss
unpenalized hit
update - gcpfactor: -619, compression size: 64 
avodiable miss
avodiable miss
unpenalized hit
update - gcpfactor: -621, compression size: 64 
avodiable miss
unpenalized hit
update - gcpfactor: -622, compression size: 64 
avodiable miss
unpenalized hit
unpenalized hit
unpenalized hit
unpenalized hit
unpenalized hit
update - gcpfactor: -623, compression size: 64 
gcpfactor has to 0<: -623 
uncompressed size: 512
unpenalized hit
update - gcpfactor: -623, compression size: 64 
unpenalized hit
update - gcpfactor: -623, compression size: 64 
unpenalized hit
update - gcpfactor: -623, compression size: 64 
unpenalized hit
update - gcpfactor: -623, compression size: 64 
unpenalized hit
update - gcpfactor: -623, compression size: 64 
avodiable miss
avodiable miss
unpenalized hit
update - gcpfactor: -625, compression size: 64 
avodiable miss
unpenalized hit
update - gcpfactor: -626, compression size: 64 
avodiable miss
unpenalized hit
update - gcpfactor: -627, compression size: 64 
unpenalized hit
update - gcpfactor: -627, compression size: 64 
unpenalized hit
update - gcpfactor: -627, compression size: 64 
unpenalized hit
unpenalized hit
update - gcpfactor: -627, compression size: 64 
unpenalized hit
unpenalized hit
avodiable miss
unpenalized hit
avodiable miss
unpenalized hit
avodiable miss
unpenalized hit
update - gcpfactor: -630, compression size: 64 
unpenalized hit
update - gcpfactor: -630, compression size: 64 
unpenalized hit
update - gcpfactor: -630, compression size: 64 
unpenalized hit
update - gcpfactor: -630, compression size: 64 
unpenalized hit
update - gcpfactor: -630, compression size: 64 
unpenalized hit
update - gcpfactor: -630, compression size: 64 
unpenalized hit
update - gcpfactor: -630, compression size: 64 
unpenalized hit
update - gcpfactor: -630, compression size: 64 
unpenalized hit
unpenalized hit
avodiable miss
unpenalized hit
update - gcpfactor: -631, compression size: 64 
avodiable miss
unpenalized hit
update - gcpfactor: -632, compression size: 64 
avodiable miss
unpenalized hit
unpenalized hit
avodiable miss
unpenalized hit
unpenalized hit
avodiable miss
unpenalized hit
avodiable miss
unpenalized hit
unpenalized hit
avodiable miss
avodiable miss
avodiable miss
avodiable miss
avodiable miss
avodiable miss
avodiable miss
avodiable miss
unpenalized hit
unpenalized hit
avodiable miss
unpenalized hit
avodiable miss
avodiable miss
avodiable miss
avodiable miss
avodiable miss
avodiable miss
avodiable miss
avodiable miss
unpenalized hit
update - gcpfactor: -653, compression size: 64 
unpenalized hit
update - gcpfactor: -653, compression size: 64 
unpenalized hit
update - gcpfactor: -653, compression size: 64 
unpenalized hit
update - gcpfactor: -653, compression size: 64 
unpenalized hit
update - gcpfactor: -653, compression size: 64 
unpenalized hit
update - gcpfactor: -653, compression size: 64 
unpenalized hit
update - gcpfactor: -653, compression size: 64 
unpenalized hit
update - gcpfactor: -653, compression size: 64 
unpenalized hit
update - gcpfactor: -653, compression size: 64 
unpenalized hit
unpenalized hit
unpenalized hit
update - gcpfactor: -653, compression size: 64 
unpenalized hit
update - gcpfactor: -653, compression size: 64 
unpenalized hit
update - gcpfactor: -653, compression size: 64 
unpenalized hit
update - gcpfactor: -653, compression size: 64 
unpenalized hit
update - gcpfactor: -653, compression size: 64 
unpenalized hit
unpenalized hit
update - gcpfactor: -653, compression size: 64 
unpenalized hit
unpenalized hit
avodiable miss
avodiable miss
avodiable miss
avodiable miss
avodiable miss
avodiable miss
unpenalized hit
update - gcpfactor: -659, compression size: 64 
avodiable miss
unpenalized hit
update - gcpfactor: -660, compression size: 64 
unpenalized hit
unpenalized hit
update - gcpfactor: -660, compression size: 64 
unpenalized hit
update - gcpfactor: -660, compression size: 64 
unpenalized hit
unpenalized hit
update - gcpfactor: -660, compression size: 64 
avodiable miss
avodiable miss
unpenalized hit
update - gcpfactor: -662, compression size: 64 
avodiable miss
avodiable miss
unpenalized hit
avodiable miss
unpenalized hit
update - gcpfactor: -665, compression size: 64 
unpenalized hit
update - gcpfactor: -665, compression size: 64 
unpenalized hit
update - gcpfactor: -665, compression size: 64 
unpenalized hit
update - gcpfactor: -665, compression size: 64 
unpenalized hit
update - gcpfactor: -665, compression size: 64 
unpenalized hit
update - gcpfactor: -665, compression size: 64 
unpenalized hit
update - gcpfactor: -665, compression size: 64 
unpenalized hit
unpenalized hit
unpenalized hit
unpenalized hit
unpenalized hit
unpenalized hit
unpenalized hit
unpenalized hit
unpenalized hit
unpenalized hit
unpenalized hit
avodiable miss
avodiable miss
avodiable miss
avodiable miss
avodiable miss
avodiable miss
avodiable miss
avodiable miss
avodiable miss
unpenalized hit
update - gcpfactor: -674, compression size: 64 
unpenalized hit
update - gcpfactor: -674, compression size: 64 
unpenalized hit
update - gcpfactor: -674, compression size: 64 
unpenalized hit
update - gcpfactor: -674, compression size: 64 
unpenalized hit
update - gcpfactor: -674, compression size: 64 
unpenalized hit
update - gcpfactor: -674, compression size: 64 
unpenalized hit
update - gcpfactor: -674, compression size: 64 
unpenalized hit
update - gcpfactor: -674, compression size: 64 
unpenalized hit
update - gcpfactor: -674, compression size: 64 
unpenalized hit
update - gcpfactor: -674, compression size: 64 
unpenalized hit
update - gcpfactor: -674, compression size: 64 
unpenalized hit
update - gcpfactor: -674, compression size: 64 
unpenalized hit
update - gcpfactor: -674, compression size: 64 
unpenalized hit
update - gcpfactor: -674, compression size: 64 
unpenalized hit
update - gcpfactor: -674, compression size: 64 
unpenalized hit
update - gcpfactor: -674, compression size: 64 
unpenalized hit
update - gcpfactor: -674, compression size: 64 
avodiable miss
unpenalized hit
update - gcpfactor: -675, compression size: 64 
unpenalized hit
update - gcpfactor: -675, compression size: 64 
avodiable miss
unpenalized hit
update - gcpfactor: -676, compression size: 64 
unpenalized hit
update - gcpfactor: -676, compression size: 64 
avodiable miss
unpenalized hit
update - gcpfactor: -677, compression size: 64 
unpenalized hit
unpenalized hit
unpenalized hit
unpenalized hit
unpenalized hit
unpenalized hit
unpenalized hit
avodiable miss
unpenalized hit
avodiable miss
avodiable miss
avodiable miss
avodiable miss
unpenalized hit
unpenalized hit
update - gcpfactor: -682, compression size: 64 
avodiable miss
avodiable miss
unpenalized hit
unpenalized hit
unpenalized hit
unpenalized hit
unpenalized hit
update - gcpfactor: -684, compression size: 64 
unpenalized hit
update - gcpfactor: -684, compression size: 64 
unpenalized hit
unpenalized hit
unpenalized hit
unpenalized hit
unpenalized hit
unpenalized hit
unpenalized hit
update - gcpfactor: -684, compression size: 64 
unpenalized hit
update - gcpfactor: -684, compression size: 64 
unpenalized hit
update - gcpfactor: -684, compression size: 64 
unpenalized hit
update - gcpfactor: -684, compression size: 64 
gcpfactor has to 0<: -684 
uncompressed size: 512
avodiable miss
gcpfactor has to 0<: -685 
uncompressed size: 512
gcpfactor has to 0<: -685 
uncompressed size: 512
avodiable miss
gcpfactor has to 0<: -686 
uncompressed size: 512
gcpfactor has to 0<: -686 
uncompressed size: 512
avodiable miss
gcpfactor has to 0<: -687 
uncompressed size: 512
avodiable miss
gcpfactor has to 0<: -688 
uncompressed size: 512
avodiable miss
gcpfactor has to 0<: -689 
uncompressed size: 512
avodiable miss
avodiable miss
gcpfactor has to 0<: -691 
uncompressed size: 512
avodiable miss
gcpfactor has to 0<: -692 
uncompressed size: 512
avodiable miss
gcpfactor has to 0<: -693 
uncompressed size: 512
avodiable miss
gcpfactor has to 0<: -694 
uncompressed size: 512
gcpfactor has to 0<: -694 
uncompressed size: 512
avodiable miss
gcpfactor has to 0<: -695 
uncompressed size: 512
gcpfactor has to 0<: -695 
uncompressed size: 512
avodiable miss
gcpfactor has to 0<: -696 
uncompressed size: 512
gcpfactor has to 0<: -696 
uncompressed size: 512
avodiable miss
gcpfactor has to 0<: -697 
uncompressed size: 512
gcpfactor has to 0<: -697 
uncompressed size: 512
avodiable miss
gcpfactor has to 0<: -698 
uncompressed size: 512
gcpfactor has to 0<: -698 
uncompressed size: 512
avodiable miss
[...]
update - gcpfactor: -38072, compression size: 64 
avoided miss
penalized hit
update - gcpfactor: -38072, compression size: 64 
avoided miss
penalized hit
update - gcpfactor: -38072, compression size: 64 
avoided miss
penalized hit
update - gcpfactor: -38072, compression size: 64 
avoided miss
penalized hit
update - gcpfactor: -38072, compression size: 64 
avoided miss
penalized hit
update - gcpfactor: -38072, compression size: 64 
avoided miss
penalized hit
update - gcpfactor: -38072, compression size: 64 
unpenalized hit
penalized hit
update - gcpfactor: -38071, compression size: 64 
penalized hit
penalized hit
update - gcpfactor: -38069, compression size: 64 
penalized hit
penalized hit
update - gcpfactor: -38067, compression size: 64 
avoided miss
avoided miss
update - gcpfactor: -38069, compression size: 64 
avoided miss
avoided miss
update - gcpfactor: -38071, compression size: 64 
avoided miss
avoided miss
update - gcpfactor: -38073, compression size: 64 
penalized hit
avoided miss
update - gcpfactor: -38073, compression size: 64 
penalized hit
avoided miss
update - gcpfactor: -38073, compression size: 64 
penalized hit
avoided miss
update - gcpfactor: -38073, compression size: 64 
penalized hit
avoided miss
update - gcpfactor: -38073, compression size: 64 
penalized hit
avoided miss
update - gcpfactor: -38073, compression size: 64 
penalized hit
avoided miss
update - gcpfactor: -38073, compression size: 64 
penalized hit
avoided miss
update - gcpfactor: -38073, compression size: 64 
penalized hit
avoided miss
update - gcpfactor: -38073, compression size: 64 
avoided miss
avoided miss
update - gcpfactor: -38075, compression size: 64 
avoided miss
avoided miss
update - gcpfactor: -38077, compression size: 64 
avoided miss
avoided miss
update - gcpfactor: -38079, compression size: 64 
avoided miss
avoided miss
update - gcpfactor: -38081, compression size: 64 
avoided miss
avoided miss
update - gcpfactor: -38083, compression size: 64 
avoided miss
avoided miss
update - gcpfactor: -38085, compression size: 64 
avoided miss
avoided miss
update - gcpfactor: -38087, compression size: 64 
avoided miss
avoided miss
update - gcpfactor: -38089, compression size: 64 
avoided miss
avoided miss
update - gcpfactor: -38091, compression size: 64 
avoided miss
avoided miss
update - gcpfactor: -38093, compression size: 64 
avoided miss
avoided miss
update - gcpfactor: -38095, compression size: 64 
avoided miss
penalized hit
update - gcpfactor: -38095, compression size: 64 
avoided miss
penalized hit
update - gcpfactor: -38095, compression size: 64 
avoided miss
avoided miss
update - gcpfactor: -38097, compression size: 64 
avoided miss
avoided miss
update - gcpfactor: -38099, compression size: 64 
avoided miss
avoided miss
update - gcpfactor: -38101, compression size: 64 
avoided miss
avoided miss
update - gcpfactor: -38103, compression size: 64 
avoided miss
avoided miss
update - gcpfactor: -38105, compression size: 64 
avoided miss
avoided miss
update - gcpfactor: -38107, compression size: 64 
penalized hit
avoided miss
update - gcpfactor: -38107, compression size: 64 
penalized hit
avoided miss
update - gcpfactor: -38107, compression size: 64 
penalized hit
unpenalized hit
avoided miss
unpenalized hit
avoided miss
unpenalized hit
avoided miss
avoided miss
update - gcpfactor: -38110, compression size: 64 
avoided miss
avoided miss
update - gcpfactor: -38112, compression size: 64 
avoided miss
avoided miss
update - gcpfactor: -38114, compression size: 64 
avoided miss
penalized hit
update - gcpfactor: -38114, compression size: 64 
avoided miss
penalized hit
update - gcpfactor: -38114, compression size: 64 
avoided miss
penalized hit
update - gcpfactor: -38114, compression size: 64 
avoided miss
penalized hit
update - gcpfactor: -38114, compression size: 64 
avoided miss
penalized hit
update - gcpfactor: -38114, compression size: 64 
avoided miss
penalized hit
update - gcpfactor: -38114, compression size: 64 
avoided miss
penalized hit
update - gcpfactor: -38114, compression size: 64 
avoided miss
penalized hit
update - gcpfactor: -38114, compression size: 64 
unpenalized hit
avoided miss
update - gcpfactor: -38115, compression size: 64 
penalized hit
penalized hit
update - gcpfactor: -38113, compression size: 64 
penalized hit
penalized hit
update - gcpfactor: -38111, compression size: 64 
unpenalized hit
unpenalized hit
update - gcpfactor: -38111, compression size: 64 
avoided miss
avoided miss
update - gcpfactor: -38113, compression size: 64 
avoided miss
avoided miss
update - gcpfactor: -38115, compression size: 64 
unpenalized hit
avoided miss
update - gcpfactor: -38116, compression size: 64 
penalized hit
avoided miss
update - gcpfactor: -38116, compression size: 64 
penalized hit
avoided miss
update - gcpfactor: -38116, compression size: 64 
penalized hit
avoided miss
update - gcpfactor: -38116, compression size: 64 
penalized hit
avoided miss
update - gcpfactor: -38116, compression size: 64 
penalized hit
avoided miss
update - gcpfactor: -38116, compression size: 64 
penalized hit
avoided miss
update - gcpfactor: -38116, compression size: 64 
penalized hit
avoided miss
update - gcpfactor: -38116, compression size: 64 
penalized hit
avoided miss
update - gcpfactor: -38116, compression size: 64 
avoided miss
avoided miss
update - gcpfactor: -38118, compression size: 64 
avoided miss
avoided miss
update - gcpfactor: -38120, compression size: 64 
avoided miss
avoided miss
update - gcpfactor: -38122, compression size: 64 
avoided miss
avoided miss
update - gcpfactor: -38124, compression size: 64 
avoided miss
avoided miss
update - gcpfactor: -38126, compression size: 64 
avoided miss
avoided miss
update - gcpfactor: -38128, compression size: 64 
avoided miss
penalized hit
update - gcpfactor: -38128, compression size: 64 
avoided miss
avoided miss
update - gcpfactor: -38130, compression size: 64 
avoided miss
avoided miss
update - gcpfactor: -38132, compression size: 64 
avoided miss
avoided miss
update - gcpfactor: -38134, compression size: 64 
avoided miss
unpenalized hit
update - gcpfactor: -38135, compression size: 64 
avoided miss
avoided miss
update - gcpfactor: -38137, compression size: 64 
avoided miss
avoided miss
update - gcpfactor: -38139, compression size: 64 
avoided miss
avoided miss
update - gcpfactor: -38141, compression size: 64 
avoided miss
penalized hit
update - gcpfactor: -38141, compression size: 64 
avoided miss
penalized hit
update - gcpfactor: -38141, compression size: 64 
avoided miss
avoided miss
update - gcpfactor: -38143, compression size: 64 
avoided miss
avoided miss
update - gcpfactor: -38145, compression size: 64 
avoided miss
avoided miss
update - gcpfactor: -38147, compression size: 64 
avoided miss
avoided miss
update - gcpfactor: -38149, compression size: 64 
avoided miss
avoided miss
update - gcpfactor: -38151, compression size: 64 
avoided miss
avoided miss
update - gcpfactor: -38153, compression size: 64 
penalized hit
avoided miss
update - gcpfactor: -38153, compression size: 64 
penalized hit
avoided miss
update - gcpfactor: -38153, compression size: 64 
penalized hit
unpenalized hit
penalized hit
avoided miss
update - gcpfactor: -38152, compression size: 64 
penalized hit
avoided miss
update - gcpfactor: -38152, compression size: 64 
avodiable miss
gcpfactor has to 0<: -38153 
uncompressed size: 512
avoided miss
update - gcpfactor: -38154, compression size: 64 
unpenalized hit
avoided miss
update - gcpfactor: -38155, compression size: 64 
avodiable miss
gcpfactor has to 0<: -38156 
uncompressed size: 512
avoided miss
update - gcpfactor: -38157, compression size: 64 
avoided miss
unpenalized hit
avoided miss
unpenalized hit
update - gcpfactor: -38159, compression size: 64 
avoided miss
unpenalized hit
avoided miss
avoided miss
update - gcpfactor: -38162, compression size: 64 
avoided miss
avoided miss
update - gcpfactor: -38164, compression size: 64 
avoided miss
avoided miss
update - gcpfactor: -38166, compression size: 64 
avoided miss
avoided miss
update - gcpfactor: -38168, compression size: 64 
avoided miss
penalized hit
update - gcpfactor: -38168, compression size: 64 
avoided miss
unpenalized hit
avoided miss
penalized hit
update - gcpfactor: -38169, compression size: 64 
avoided miss
penalized hit
update - gcpfactor: -38169, compression size: 64 
avoided miss
penalized hit
update - gcpfactor: -38169, compression size: 64 
avoided miss
penalized hit
update - gcpfactor: -38169, compression size: 64 
avoided miss
penalized hit
update - gcpfactor: -38169, compression size: 64 
avoided miss
penalized hit
update - gcpfactor: -38169, compression size: 64 
avoided miss
penalized hit
update - gcpfactor: -38169, compression size: 64 
unpenalized hit
avoided miss
update - gcpfactor: -38170, compression size: 64 
penalized hit
penalized hit
update - gcpfactor: -38168, compression size: 64 
penalized hit
penalized hit
update - gcpfactor: -38166, compression size: 64 
unpenalized hit
unpenalized hit
update - gcpfactor: -38166, compression size: 64 
unpenalized hit
penalized hit
update - gcpfactor: -38165, compression size: 64 
avoided miss
avoided miss
update - gcpfactor: -38167, compression size: 64 
penalized hit
avoided miss
update - gcpfactor: -38167, compression size: 64 
penalized hit
avoided miss
update - gcpfactor: -38167, compression size: 64 
penalized hit
avoided miss
update - gcpfactor: -38167, compression size: 64 
penalized hit
avoided miss
update - gcpfactor: -38167, compression size: 64 
penalized hit
avoided miss
update - gcpfactor: -38167, compression size: 64 
penalized hit
avoided miss
update - gcpfactor: -38167, compression size: 64 
penalized hit
avoided miss
update - gcpfactor: -38167, compression size: 64 
penalized hit
avoided miss
update - gcpfactor: -38167, compression size: 64 
avoided miss
penalized hit
update - gcpfactor: -38167, compression size: 64 
avoided miss
avoided miss
update - gcpfactor: -38169, compression size: 64 
avoided miss
avoided miss
update - gcpfactor: -38171, compression size: 64 
avoided miss
avoided miss
update - gcpfactor: -38173, compression size: 64 
avoided miss
avoided miss
update - gcpfactor: -38175, compression size: 64 
avoided miss
avoided miss
update - gcpfactor: -38177, compression size: 64 
avoided miss
avoided miss
update - gcpfactor: -38179, compression size: 64 
avoided miss
avoided miss
update - gcpfactor: -38181, compression size: 64 
avoided miss
penalized hit
update - gcpfactor: -38181, compression size: 64 
avoided miss
avoided miss
update - gcpfactor: -38183, compression size: 64 
avoided miss
avoided miss
update - gcpfactor: -38185, compression size: 64 
avoided miss
avoided miss
update - gcpfactor: -38187, compression size: 64 
avoided miss
avoided miss
update - gcpfactor: -38189, compression size: 64 
avoided miss
avoided miss
update - gcpfactor: -38191, compression size: 64 
avoided miss
avoided miss
update - gcpfactor: -38193, compression size: 64 
avoided miss
penalized hit
update - gcpfactor: -38193, compression size: 64 
avoided miss
penalized hit
update - gcpfactor: -38193, compression size: 64 
avoided miss
avoided miss
update - gcpfactor: -38195, compression size: 64 
avoided miss
avoided miss
update - gcpfactor: -38197, compression size: 64 
avoided miss
avoided miss
update - gcpfactor: -38199, compression size: 64 
avoided miss
avoided miss
update - gcpfactor: -38201, compression size: 64 
avoided miss
avoided miss
update - gcpfactor: -38203, compression size: 64 
avoided miss
avoided miss
update - gcpfactor: -38205, compression size: 64 
penalized hit
avoided miss
update - gcpfactor: -38205, compression size: 64 
penalized hit
avoided miss
update - gcpfactor: -38205, compression size: 64 
penalized hit
unpenalized hit
penalized hit
avoided miss
update - gcpfactor: -38204, compression size: 64 
penalized hit
avoided miss
update - gcpfactor: -38204, compression size: 64 
penalized hit
avoided miss
update - gcpfactor: -38204, compression size: 64 
penalized hit
avoided miss
update - gcpfactor: -38204, compression size: 64 
avodiable miss
gcpfactor has to 0<: -38205 
uncompressed size: 512
unpenalized hit
update - gcpfactor: -38205, compression size: 64 
unpenalized hit
avoided miss
update - gcpfactor: -38206, compression size: 64 
avoided miss
penalized hit
update - gcpfactor: -38206, compression size: 64 
penalized hit
avoided miss
update - gcpfactor: -38206, compression size: 64 
avoided miss
penalized hit
update - gcpfactor: -38206, compression size: 64 
penalized hit
avoided miss
update - gcpfactor: -38206, compression size: 64 
avoided miss
penalized hit
update - gcpfactor: -38206, compression size: 64 
penalized hit
avoided miss
update - gcpfactor: -38206, compression size: 64 
avoided miss
penalized hit
update - gcpfactor: -38206, compression size: 64 
penalized hit
avoided miss
update - gcpfactor: -38206, compression size: 64 
avoided miss
penalized hit
update - gcpfactor: -38206, compression size: 64 
penalized hit
avoided miss
update - gcpfactor: -38206, compression size: 64 
avoided miss
penalized hit
update - gcpfactor: -38206, compression size: 64 
penalized hit
avoided miss
update - gcpfactor: -38206, compression size: 64 
avodiable miss
gcpfactor has to 0<: -38207 
uncompressed size: 512
unpenalized hit
update - gcpfactor: -38207, compression size: 64 
avoided miss
penalized hit
update - gcpfactor: -38207, compression size: 64 
penalized hit
avoided miss
update - gcpfactor: -38207, compression size: 64 
avoided miss
penalized hit
update - gcpfactor: -38207, compression size: 64 
avoided miss
unpenalized hit
avoided miss
avoided miss
update - gcpfactor: -38210, compression size: 64 
avoided miss
unpenalized hit
avoided miss
avoided miss
update - gcpfactor: -38213, compression size: 64 
avoided miss
avoided miss
update - gcpfactor: -38215, compression size: 64 
avoided miss
avoided miss
update - gcpfactor: -38217, compression size: 64 
avoided miss
avoided miss
update - gcpfactor: -38219, compression size: 64 
avoided miss
avoided miss
update - gcpfactor: -38221, compression size: 64 
avoided miss
penalized hit
update - gcpfactor: -38221, compression size: 64 
avoided miss
unpenalized hit
avoided miss
penalized hit
update - gcpfactor: -38222, compression size: 64 
avoided miss
penalized hit
update - gcpfactor: -38222, compression size: 64 
avoided miss
penalized hit
update - gcpfactor: -38222, compression size: 64 
avoided miss
penalized hit
update - gcpfactor: -38222, compression size: 64 
avoided miss
penalized hit
update - gcpfactor: -38222, compression size: 64 
avoided miss
penalized hit
update - gcpfactor: -38222, compression size: 64 
avoided miss
penalized hit
update - gcpfactor: -38222, compression size: 64 
unpenalized hit
avoided miss
update - gcpfactor: -38223, compression size: 64 
penalized hit
penalized hit
update - gcpfactor: -38221, compression size: 64 
penalized hit
penalized hit
update - gcpfactor: -38219, compression size: 64 
unpenalized hit
penalized hit
update - gcpfactor: -38218, compression size: 64 
unpenalized hit
penalized hit
update - gcpfactor: -38217, compression size: 64 
unpenalized hit
avoided miss
update - gcpfactor: -38218, compression size: 64 
penalized hit
avoided miss
update - gcpfactor: -38218, compression size: 64 
penalized hit
avoided miss
update - gcpfactor: -38218, compression size: 64 
penalized hit
avoided miss
update - gcpfactor: -38218, compression size: 64 
penalized hit
avoided miss
update - gcpfactor: -38218, compression size: 64 
penalized hit
avoided miss
update - gcpfactor: -38218, compression size: 64 
penalized hit
avoided miss
update - gcpfactor: -38218, compression size: 64 
penalized hit
avoided miss
update - gcpfactor: -38218, compression size: 64 
penalized hit
avoided miss
update - gcpfactor: -38218, compression size: 64 
penalized hit
avoided miss
update - gcpfactor: -38218, compression size: 64 
avoided miss
avoided miss
update - gcpfactor: -38220, compression size: 64 
avoided miss
penalized hit
update - gcpfactor: -38220, compression size: 64 
avoided miss
penalized hit
update - gcpfactor: -38220, compression size: 64 
avoided miss
avoided miss
update - gcpfactor: -38222, compression size: 64 
avoided miss
avoided miss
update - gcpfactor: -38224, compression size: 64 
avoided miss
avoided miss
update - gcpfactor: -38226, compression size: 64 
avoided miss
avoided miss
update - gcpfactor: -38228, compression size: 64 
avoided miss
avoided miss
update - gcpfactor: -38230, compression size: 64 
avoided miss
avoided miss
update - gcpfactor: -38232, compression size: 64 
avoided miss
avoided miss
update - gcpfactor: -38234, compression size: 64 
avoided miss
avoided miss
update - gcpfactor: -38236, compression size: 64 
avoided miss
avoided miss
update - gcpfactor: -38238, compression size: 64 
avoided miss
avoided miss
update - gcpfactor: -38240, compression size: 64 
avoided miss
avoided miss
update - gcpfactor: -38242, compression size: 64 
avoided miss
avoided miss
update - gcpfactor: -38244, compression size: 64 
avoided miss
avoided miss
update - gcpfactor: -38246, compression size: 64 
avoided miss
penalized hit
update - gcpfactor: -38246, compression size: 64 
avoided miss
penalized hit
update - gcpfactor: -38246, compression size: 64 
avoided miss
avoided miss
update - gcpfactor: -38248, compression size: 64 
avoided miss
avoided miss
update - gcpfactor: -38250, compression size: 64 
avoided miss
avoided miss
update - gcpfactor: -38252, compression size: 64 
avoided miss
avoided miss
update - gcpfactor: -38254, compression size: 64 
avoided miss
avoided miss
update - gcpfactor: -38256, compression size: 64 
avoided miss
avoided miss
update - gcpfactor: -38258, compression size: 64 
penalized hit
avoided miss
update - gcpfactor: -38258, compression size: 64 
penalized hit
avoided miss
update - gcpfactor: -38258, compression size: 64 
penalized hit
avoided miss
update - gcpfactor: -38258, compression size: 64 
penalized hit
avoided miss
update - gcpfactor: -38258, compression size: 64 
penalized hit
avoided miss
update - gcpfactor: -38258, compression size: 64 
penalized hit
avoided miss
update - gcpfactor: -38258, compression size: 64 
avodiable miss
gcpfactor has to 0<: -38259 
uncompressed size: 512
unpenalized hit
update - gcpfactor: -38259, compression size: 64 
unpenalized hit
penalized hit
update - gcpfactor: -38258, compression size: 64 
avoided miss
penalized hit
update - gcpfactor: -38258, compression size: 64 
penalized hit
avoided miss
update - gcpfactor: -38258, compression size: 64 
avoided miss
penalized hit
update - gcpfactor: -38258, compression size: 64 
penalized hit
avoided miss
update - gcpfactor: -38258, compression size: 64 
avoided miss
penalized hit
update - gcpfactor: -38258, compression size: 64 
penalized hit
avoided miss
update - gcpfactor: -38258, compression size: 64 
avoided miss
penalized hit
update - gcpfactor: -38258, compression size: 64 
penalized hit
avoided miss
update - gcpfactor: -38258, compression size: 64 
avoided miss
penalized hit
update - gcpfactor: -38258, compression size: 64 
penalized hit
avoided miss
update - gcpfactor: -38258, compression size: 64 
avoided miss
penalized hit
update - gcpfactor: -38258, compression size: 64 
penalized hit
avoided miss
update - gcpfactor: -38258, compression size: 64 
avodiable miss
gcpfactor has to 0<: -38259 
uncompressed size: 512
avoided miss
update - gcpfactor: -38260, compression size: 64 
avoided miss
unpenalized hit
avoided miss
penalized hit
update - gcpfactor: -38261, compression size: 64 
penalized hit
avoided miss
update - gcpfactor: -38261, compression size: 64 
avoided miss
penalized hit
update - gcpfactor: -38261, compression size: 64 
avoided miss
unpenalized hit
avoided miss
unpenalized hit
update - gcpfactor: -38263, compression size: 64 
avoided miss
unpenalized hit
penalized hit
avoided miss
update - gcpfactor: -38264, compression size: 64 
Exiting @ tick 7280182500 because a thread reached the max instruction count
