Global frequency set at 1000000000000 ticks per second
gem5 Simulator System.  https://www.gem5.org
gem5 is copyrighted software; use the --copyright option for details.

gem5 version 22.0.0.2
gem5 compiled Dec  6 2024 13:29:00
gem5 started Dec  6 2024 13:31:52
gem5 executing on qstruct.ecn.purdue.edu, pid 24396
command line: ./build/ECE565-ARM/gem5.opt configs/spec/spec_se.py --cpu-type ArmMinorCPU --l1d_size=64kB --l1i_size=64kB --caches --l2cache --l2_compressor --gcp -b astar --maxinsts=10000000

**** REAL SIMULATION ****
getgcpfactor: 74986752
getgcpfactor: 38600704
getgcpfactor: 74986752
getgcpfactor: 38600704
getgcpfactor: 74986752
getgcpfactor: 87188304
getgcpfactor: 74986752
getgcpfactor: 38600704
getgcpfactor: 74986752
getgcpfactor: 38600704
getgcpfactor: 74986752
getgcpfactor: 74986752
getgcpfactor: 38600704
getgcpfactor: 87188304
getgcpfactor: 74986752
getgcpfactor: 38600704
getgcpfactor: 74986752
getgcpfactor: 87188304
getgcpfactor: 74986752
getgcpfactor: 87188304
getgcpfactor: 74986752
getgcpfactor: 74986752
getgcpfactor: 38600704
getgcpfactor: 87188304
getgcpfactor: 74986752
getgcpfactor: 74986752
getgcpfactor: 87188304
getgcpfactor: 74986752
getgcpfactor: 87188304
getgcpfactor: 38600704
getgcpfactor: 74986752
getgcpfactor: 87188304
getgcpfactor: 74986752
getgcpfactor: 87188304
getgcpfactor: 74986752
getgcpfactor: 38600704
getgcpfactor: 74986752
getgcpfactor: 74986752
getgcpfactor: 38600704
getgcpfactor: 74986752
getgcpfactor: 87188304
getgcpfactor: 87188304
getgcpfactor: 74986752
getgcpfactor: 38600704
getgcpfactor: 74986752
getgcpfactor: 74986752
getgcpfactor: 87188304
getgcpfactor: 87188304
getgcpfactor: 74986752
getgcpfactor: 38600704
getgcpfactor: 74986752
getgcpfactor: 87188304
getgcpfactor: 74986752
getgcpfactor: 87188304
getgcpfactor: 74986752
getgcpfactor: 74986752
getgcpfactor: 38600704
getgcpfactor: 87188304
getgcpfactor: 74986752
getgcpfactor: 74986752
getgcpfactor: 38600704
getgcpfactor: 87188304
getgcpfactor: 74986752
getgcpfactor: 38600704
getgcpfactor: 74986752
getgcpfactor: 38600704
getgcpfactor: 74986752
getgcpfactor: 38600704
getgcpfactor: 74986752
getgcpfactor: 38600704
getgcpfactor: 74986752
getgcpfactor: 38600704
getgcpfactor: 74986752
getgcpfactor: 38600704
getgcpfactor: 74986752
getgcpfactor: 87188304
getgcpfactor: 74986752
getgcpfactor: 38600704
getgcpfactor: 74986752
getgcpfactor: 87188304
getgcpfactor: 74986752
getgcpfactor: 87188304
getgcpfactor: 74986752
getgcpfactor: 87188304
getgcpfactor: 74986752
getgcpfactor: 38600704
getgcpfactor: 74986752
getgcpfactor: 87188304
getgcpfactor: 74986752
getgcpfactor: 38600704
getgcpfactor: 74986752
getgcpfactor: 38600704
getgcpfactor: 74986752
getgcpfactor: 38600704
getgcpfactor: 74986752
getgcpfactor: 38600704
getgcpfactor: 74986752
getgcpfactor: 38600704
getgcpfactor: 74986752
getgcpfactor: 38600704
getgcpfactor: 74986752
getgcpfactor: 38600704
getgcpfactor: 74986752
getgcpfactor: 38600704
getgcpfactor: 74986752
getgcpfactor: 38600704
getgcpfactor: 74986752
getgcpfactor: 38600704
getgcpfactor: 74986752
getgcpfactor: 38600704
getgcpfactor: 74986752
getgcpfactor: 87188304
getgcpfactor: 74986752
getgcpfactor: 87188304
getgcpfactor: 74986752
getgcpfactor: 38600704
getgcpfactor: 74986752
getgcpfactor: 87188304
getgcpfactor: 74986752
getgcpfactor: 38600704
getgcpfactor: 74986752
getgcpfactor: 87188304
getgcpfactor: 74986752
getgcpfactor: 38600704
getgcpfactor: 74986752
getgcpfactor: 87188304
getgcpfactor: 74986752
getgcpfactor: 38600704
getgcpfactor: 74986752
getgcpfactor: 38600704
getgcpfactor: 74986752
getgcpfactor: 38600704
getgcpfactor: 74986752
getgcpfactor: 38600704
getgcpfactor: 74986752
getgcpfactor: 38600704
getgcpfactor: 74986752
getgcpfactor: 74986752
getgcpfactor: 87188304
getgcpfactor: 38600704
getgcpfactor: 74986752
getgcpfactor: 38600704
getgcpfactor: 74986752
getgcpfactor: 38600704
getgcpfactor: 74986752
getgcpfactor: 38600704
getgcpfactor: 74986752
getgcpfactor: 38600704
getgcpfactor: 74986752
getgcpfactor: 38600704
getgcpfactor: 74986752
getgcpfactor: 38600704
getgcpfactor: 74986752
getgcpfactor: 87188304
getgcpfactor: 74986752
getgcpfactor: 38600704
getgcpfactor: 74986752
getgcpfactor: 38600704
getgcpfactor: 74986752
getgcpfactor: 38600704
getgcpfactor: 74986752
getgcpfactor: 38600704
getgcpfactor: 74986752
getgcpfactor: 87188304
getgcpfactor: 74986752
getgcpfactor: 38600704
getgcpfactor: 74986752
getgcpfactor: 38600704
getgcpfactor: 74986752
getgcpfactor: 38600704
getgcpfactor: 74986752
getgcpfactor: 38600704
getgcpfactor: 74986752
getgcpfactor: 87188304
getgcpfactor: 74986752
getgcpfactor: 38600704
getgcpfactor: 74986752
getgcpfactor: 74986752
getgcpfactor: 87188304
getgcpfactor: 38600704
getgcpfactor: 74986752
getgcpfactor: 87188304
getgcpfactor: 74986752
getgcpfactor: 87188304
getgcpfactor: 74986752
getgcpfactor: 87188304
getgcpfactor: 74986752
getgcpfactor: 38600704
getgcpfactor: 74986752
getgcpfactor: 87188304
getgcpfactor: 74986752
getgcpfactor: 38600704
getgcpfactor: 74986752
getgcpfactor: 38600704
getgcpfactor: 74986752
getgcpfactor: 74986752
getgcpfactor: 38600704
getgcpfactor: 87188304
getgcpfactor: 74986752
getgcpfactor: 38600704
getgcpfactor: 74986752
getgcpfactor: 87188304
getgcpfactor: 74986752
getgcpfactor: 38600704
getgcpfactor: 74986752
getgcpfactor: 38600704
getgcpfactor: 74986752
getgcpfactor: 38600704
getgcpfactor: 74986752
getgcpfactor: 38600704
getgcpfactor: 74986752
getgcpfactor: 38600704
getgcpfactor: 74986752
getgcpfactor: 38600704
getgcpfactor: 74986752
getgcpfactor: 74986752
getgcpfactor: 87188304
getgcpfactor: 87188304
getgcpfactor: 74986752
getgcpfactor: 38600704
getgcpfactor: 74986752
getgcpfactor: 38600704
getgcpfactor: 74986752
getgcpfactor: 38600704
getgcpfactor: 74986752
getgcpfactor: 38600704
getgcpfactor: 74986752
getgcpfactor: 87188304
getgcpfactor: 74986752
getgcpfactor: 38600704
getgcpfactor: 74986752
getgcpfactor: 87188304
getgcpfactor: 74986752
getgcpfactor: 38600704
getgcpfactor: 74986752
getgcpfactor: 87188304
getgcpfactor: 74986752
getgcpfactor: 87188304
getgcpfactor: 74986752
getgcpfactor: 74986752
getgcpfactor: 38600704
getgcpfactor: 87188304
getgcpfactor: 74986752
getgcpfactor: 38600704
getgcpfactor: 74986752
getgcpfactor: 87188304
getgcpfactor: 74986752
getgcpfactor: 38600704
getgcpfactor: 74986752
getgcpfactor: 74986752
getgcpfactor: 38600704
getgcpfactor: 87188304
getgcpfactor: 74986752
getgcpfactor: 38600704
getgcpfactor: 74986752
getgcpfactor: 38600704
getgcpfactor: 74986752
getgcpfactor: 38600704
getgcpfactor: 74986752
getgcpfactor: 38600704
getgcpfactor: 74986752
getgcpfactor: 87188304
getgcpfactor: 74986752
getgcpfactor: 38600704
getgcpfactor: 74986752
getgcpfactor: 38600704
getgcpfactor: 74986752
getgcpfactor: 38600704
getgcpfactor: 74986752
getgcpfactor: 38600704
getgcpfactor: 74986752
getgcpfactor: 87188304
getgcpfactor: 74986752
getgcpfactor: 38600704
getgcpfactor: 74986752
getgcpfactor: 38600704
getgcpfactor: 74986752
getgcpfactor: 38600704
getgcpfactor: 74986752
getgcpfactor: 38600704
getgcpfactor: 74986752
getgcpfactor: 87188304
getgcpfactor: 74986752
getgcpfactor: 38600704
getgcpfactor: 74986752
getgcpfactor: 87188304
getgcpfactor: 74986752
getgcpfactor: 38600704
getgcpfactor: 74986752
getgcpfactor: 38600704
getgcpfactor: 74986752
getgcpfactor: 38600704
getgcpfactor: 74986752
getgcpfactor: 87188304
getgcpfactor: 74986752
getgcpfactor: 38600704
getgcpfactor: 74986752
getgcpfactor: 74986752
getgcpfactor: 87188304
getgcpfactor: 38600704
getgcpfactor: 74986752
getgcpfactor: 38600704
getgcpfactor: 74986752
getgcpfactor: 38600704
getgcpfactor: 74986752
getgcpfactor: 38600704
getgcpfactor: 74986752
getgcpfactor: 87188304
getgcpfactor: 74986752
getgcpfactor: 38600704
getgcpfactor: 74986752
getgcpfactor: 38600704
getgcpfactor: 74986752
getgcpfactor: 38600704
getgcpfactor: 74986752
getgcpfactor: 38600704
getgcpfactor: 74986752
getgcpfactor: 38600704
getgcpfactor: 74986752
getgcpfactor: 87188304
getgcpfactor: 74986752
getgcpfactor: 74986752
getgcpfactor: 38600704
getgcpfactor: 87188304
getgcpfactor: 74986752
getgcpfactor: 38600704
getgcpfactor: 74986752
getgcpfactor: 74986752
getgcpfactor: 38600704
getgcpfactor: 87188304
getgcpfactor: 74986752
getgcpfactor: 38600704
getgcpfactor: 74986752
getgcpfactor: 38600704
getgcpfactor: 74986752
getgcpfactor: 38600704
getgcpfactor: 74986752
getgcpfactor: 38600704
getgcpfactor: 74986752
getgcpfactor: 38600704
getgcpfactor: 74986752
getgcpfactor: 38600704
getgcpfactor: 74986752
getgcpfactor: 38600704
getgcpfactor: 74986752
getgcpfactor: 38600704
getgcpfactor: 74986752
getgcpfactor: 38600704
getgcpfactor: 74986752
getgcpfactor: 38600704
getgcpfactor: 74986752
getgcpfactor: 87188304
getgcpfactor: 74986752
getgcpfactor: 38600704
getgcpfactor: 74986752
getgcpfactor: 87188304
getgcpfactor: 74986752
getgcpfactor: 38600704
getgcpfactor: 74986752
getgcpfactor: 38600704
getgcpfactor: 74986752
getgcpfactor: 38600704
getgcpfactor: 74986752
getgcpfactor: 74986752
getgcpfactor: 38600704
getgcpfactor: 87188304
getgcpfactor: 74986752
getgcpfactor: 38600704
getgcpfactor: 74986752
getgcpfactor: 38600704
getgcpfactor: 74986752
getgcpfactor: 74986752
getgcpfactor: 38600704
getgcpfactor: 87188304
getgcpfactor: 74986752
getgcpfactor: 74986752
getgcpfactor: 38600704
getgcpfactor: 87188304
getgcpfactor: 74986752
getgcpfactor: 74986752
getgcpfactor: 87188304
getgcpfactor: 38600704
getgcpfactor: 74986752
getgcpfactor: 87188304
getgcpfactor: 74986752
getgcpfactor: 87188304
getgcpfactor: 74986752
getgcpfactor: 38600704
getgcpfactor: 74986752
getgcpfactor: 38600704
getgcpfactor: 74986752
getgcpfactor: 38600704
getgcpfactor: 74986752
getgcpfactor: 38600704
getgcpfactor: 74986752
getgcpfactor: 38600704
getgcpfactor: 74986752
getgcpfactor: 38600704
getgcpfactor: 74986752
getgcpfactor: 87188304
getgcpfactor: 74986752
getgcpfactor: 38600704
getgcpfactor: 74986752
getgcpfactor: 38600704
getgcpfactor: 74986752
getgcpfactor: 38600704
getgcpfactor: 74986752
getgcpfactor: 38600704
getgcpfactor: 74986752
getgcpfactor: 38600704
getgcpfactor: 74986752
getgcpfactor: 38600704
getgcpfactor: 74986752
getgcpfactor: 38600704
getgcpfactor: 74986752
getgcpfactor: 38600704
getgcpfactor: 74986752
getgcpfactor: 38600704
getgcpfactor: 74986752
getgcpfactor: 38600704
getgcpfactor: 74986752
getgcpfactor: 38600704
getgcpfactor: 74986752
getgcpfactor: 38600704
getgcpfactor: 74986752
getgcpfactor: 87188304
getgcpfactor: 74986752
getgcpfactor: 38600704
getgcpfactor: 74986752
getgcpfactor: 38600704
getgcpfactor: 74986752
getgcpfactor: 74986752
getgcpfactor: 38600704
getgcpfactor: 87188304
getgcpfactor: 74986752
getgcpfactor: 38600704
getgcpfactor: 74986752
getgcpfactor: 87188304
getgcpfactor: 74986752
getgcpfactor: 38600704
getgcpfactor: 74986752
getgcpfactor: 74986752
getgcpfactor: 38600704
getgcpfactor: 87188304
getgcpfactor: 74986752
getgcpfactor: 38600704
getgcpfactor: 74986752
getgcpfactor: 87188304
getgcpfactor: 74986752
getgcpfactor: 74986752
getgcpfactor: 87188304
getgcpfactor: 38600704
getgcpfactor: 74986752
getgcpfactor: 87188304
getgcpfactor: 74986752
getgcpfactor: 38600704
getgcpfactor: 74986752
getgcpfactor: 87188304
getgcpfactor: 74986752
getgcpfactor: 87188304
getgcpfactor: 74986752
getgcpfactor: 87188304
getgcpfactor: 74986752
getgcpfactor: 87188304
getgcpfactor: 74986752
getgcpfactor: 87188304
getgcpfactor: 74986752
getgcpfactor: 87188304
getgcpfactor: 74986752
getgcpfactor: 87188304
getgcpfactor: 74986752
getgcpfactor: 87188304
getgcpfactor: 74986752
getgcpfactor: 87188304
getgcpfactor: 74986752
getgcpfactor: 87188304
getgcpfactor: 74986752
getgcpfactor: 87188304
getgcpfactor: 74986752
getgcpfactor: 87188304
getgcpfactor: 74986752
getgcpfactor: 87188304
getgcpfactor: 74986752
getgcpfactor: 87188304
getgcpfactor: 74986752
getgcpfactor: 87188304
getgcpfactor: 74986752
getgcpfactor: 87188304
getgcpfactor: 74986752
getgcpfactor: 87188304
getgcpfactor: 74986752
getgcpfactor: 87188304
getgcpfactor: 74986752
getgcpfactor: 87188304
getgcpfactor: 74986752
getgcpfactor: 87188304
getgcpfactor: 74986752
getgcpfactor: 87188304
getgcpfactor: 74986752
getgcpfactor: 87188304
getgcpfactor: 74986752
getgcpfactor: 87188304
getgcpfactor: 74986752
getgcpfactor: 87188304
getgcpfactor: 74986752
getgcpfactor: 87188304
getgcpfactor: 74986752
getgcpfactor: 87188304
getgcpfactor: 74986752
getgcpfactor: 87188304
getgcpfactor: 74986752
getgcpfactor: 87188304
getgcpfactor: 74986752
getgcpfactor: 87188304
getgcpfactor: 74986752
getgcpfactor: 74986752
getgcpfactor: 38600704
getgcpfactor: 74986752
getgcpfactor: 87188304
getgcpfactor: 87188304
getgcpfactor: 74986752
getgcpfactor: 87188304
getgcpfactor: 74986752
getgcpfactor: 87188304
getgcpfactor: 74986752
getgcpfactor: 87188304
getgcpfactor: 74986752
getgcpfactor: 38600704
getgcpfactor: 74986752
getgcpfactor: 87188304
getgcpfactor: 74986752
getgcpfactor: 87188304
getgcpfactor: 74986752
getgcpfactor: 87188304
getgcpfactor: 74986752
getgcpfactor: 38600704
getgcpfactor: 74986752
getgcpfactor: 87188304
getgcpfactor: 74986752
getgcpfactor: 87188304
getgcpfactor: 74986752
getgcpfactor: 38600704
getgcpfactor: 74986752
getgcpfactor: 87188304
getgcpfactor: 74986752
getgcpfactor: 38600704
getgcpfactor: 74986752
getgcpfactor: 38600704
getgcpfactor: 74986752
getgcpfactor: 38600704
getgcpfactor: 74986752
getgcpfactor: 38600704
getgcpfactor: 74986752
getgcpfactor: 38600704
getgcpfactor: 74986752
getgcpfactor: 38600704
getgcpfactor: 74986752
getgcpfactor: 74986752
getgcpfactor: 38600704
getgcpfactor: 87188304
getgcpfactor: 74986752
getgcpfactor: 38600704
getgcpfactor: 74986752
getgcpfactor: 38600704
getgcpfactor: 74986752
getgcpfactor: 38600704
getgcpfactor: 74986752
getgcpfactor: 87188304
getgcpfactor: 74986752
getgcpfactor: 38600704
getgcpfactor: 74986752
getgcpfactor: 87188304
getgcpfactor: 74986752
getgcpfactor: 38600704
getgcpfactor: 74986752
getgcpfactor: 87188304
getgcpfactor: 74986752
getgcpfactor: 38600704
getgcpfactor: 74986752
getgcpfactor: 38600704
getgcpfactor: 74986752
getgcpfactor: 38600704
getgcpfactor: 74986752
getgcpfactor: 38600704
getgcpfactor: 74986752
getgcpfactor: 38600704
getgcpfactor: 74986752
getgcpfactor: 38600704
getgcpfactor: 74986752
getgcpfactor: 38600704
getgcpfactor: 74986752
getgcpfactor: 38600704
getgcpfactor: 74986752
getgcpfactor: 38600704
getgcpfactor: 74986752
getgcpfactor: 38600704
getgcpfactor: 74986752
getgcpfactor: 38600704
getgcpfactor: 74986752
getgcpfactor: 38600704
getgcpfactor: 74986752
getgcpfactor: 38600704
getgcpfactor: 74986752
getgcpfactor: 38600704
getgcpfactor: 74986752
getgcpfactor: 38600704
getgcpfactor: 74986752
getgcpfactor: 38600704
getgcpfactor: 74986752
getgcpfactor: 38600704
getgcpfactor: 74986752
getgcpfactor: 38600704
getgcpfactor: 74986752
getgcpfactor: 74986752
getgcpfactor: 38600704
getgcpfactor: 87188304
getgcpfactor: 74986752
getgcpfactor: 74986752
getgcpfactor: 38600704
getgcpfactor: 87188304
getgcpfactor: 74986752
getgcpfactor: 38600704
getgcpfactor: 74986752
getgcpfactor: 87188304
getgcpfactor: 74986752
getgcpfactor: 38600704
getgcpfactor: 74986752
getgcpfactor: 38600704
getgcpfactor: 74986752
getgcpfactor: 38600704
getgcpfactor: 74986752
getgcpfactor: 38600704
getgcpfactor: 74986752
getgcpfactor: 38600704
getgcpfactor: 74986752
getgcpfactor: 38600704
getgcpfactor: 74986752
getgcpfactor: 38600704
getgcpfactor: 74986752
getgcpfactor: 38600704
getgcpfactor: 74986752
getgcpfactor: 38600704
getgcpfactor: 74986752
getgcpfactor: 87188304
getgcpfactor: 74986752
getgcpfactor: 38600704
getgcpfactor: 74986752
getgcpfactor: 74986752
getgcpfactor: 87188304
getgcpfactor: 38600704
getgcpfactor: 74986752
getgcpfactor: 38600704
getgcpfactor: 74986752
getgcpfactor: 38600704
getgcpfactor: 74986752
getgcpfactor: 38600704
getgcpfactor: 74986752
getgcpfactor: 38600704
getgcpfactor: 74986752
getgcpfactor: 38600704
getgcpfactor: 74986752
getgcpfactor: 38600704
getgcpfactor: 74986752
getgcpfactor: 38600704
getgcpfactor: 74986752
getgcpfactor: 38600704
getgcpfactor: 74986752
getgcpfactor: 38600704
getgcpfactor: 74986752
getgcpfactor: 87188304
getgcpfactor: 74986752
getgcpfactor: 38600704
getgcpfactor: 74986752
getgcpfactor: 38600704
getgcpfactor: 74986752
getgcpfactor: 38600704
getgcpfactor: 74986752
getgcpfactor: 87188304
getgcpfactor: 74986752
getgcpfactor: 38600704
getgcpfactor: 74986752
getgcpfactor: 38600704
getgcpfactor: 74986752
getgcpfactor: 38600704
getgcpfactor: 74986752
getgcpfactor: 38600704
getgcpfactor: 74986752
getgcpfactor: 38600704
getgcpfactor: 74986752
getgcpfactor: 38600704
getgcpfactor: 74986752
getgcpfactor: 38600704
getgcpfactor: 74986752
getgcpfactor: 38600704
getgcpfactor: 74986752
getgcpfactor: 38600704
getgcpfactor: 74986752
getgcpfactor: 38600704
getgcpfactor: 74986752
getgcpfactor: 38600704
getgcpfactor: 74986752
getgcpfactor: 87188304
getgcpfactor: 87188304
getgcpfactor: 74986752
getgcpfactor: 38600704
getgcpfactor: 87188304
getgcpfactor: 87188304
getgcpfactor: 87188304
getgcpfactor: 87188304
getgcpfactor: 74986752
getgcpfactor: 38600704
getgcpfactor: 87188304
getgcpfactor: 87188304
getgcpfactor: 74986752
getgcpfactor: 87188304
getgcpfactor: 74986752
getgcpfactor: 38600704
getgcpfactor: 74986752
getgcpfactor: 38600704
getgcpfactor: 74986752
getgcpfactor: 87188304
getgcpfactor: 74986752
getgcpfactor: 38600704
getgcpfactor: 74986752
getgcpfactor: 38600704
getgcpfactor: 74986752
getgcpfactor: 38600704
getgcpfactor: 74986752
getgcpfactor: 87188304
getgcpfactor: 74986752
getgcpfactor: 38600704
getgcpfactor: 74986752
getgcpfactor: 74986752
getgcpfactor: 38600704
getgcpfactor: 87188304
getgcpfactor: 74986752
getgcpfactor: 38600704
getgcpfactor: 74986752
getgcpfactor: 38600704
getgcpfactor: 74986752
getgcpfactor: 74986752
getgcpfactor: 87188304
getgcpfactor: 38600704
getgcpfactor: 74986752
getgcpfactor: 74986752
getgcpfactor: 38600704
getgcpfactor: 87188304
getgcpfactor: 74986752
getgcpfactor: 38600704
getgcpfactor: 74986752
getgcpfactor: 38600704
getgcpfactor: 74986752
getgcpfactor: 38600704
getgcpfactor: 74986752
getgcpfactor: 38600704
getgcpfactor: 74986752
getgcpfactor: 38600704
getgcpfactor: 74986752
getgcpfactor: 38600704
getgcpfactor: 74986752
getgcpfactor: 38600704
getgcpfactor: 74986752
getgcpfactor: 38600704
getgcpfactor: 74986752
getgcpfactor: 87188304
getgcpfactor: 74986752
getgcpfactor: 74986752
getgcpfactor: 38600704
getgcpfactor: 87188304
getgcpfactor: 74986752
getgcpfactor: 38600704
getgcpfactor: 74986752
getgcpfactor: 87188304
getgcpfactor: 74986752
getgcpfactor: 87188304
getgcpfactor: 74986752
getgcpfactor: 38600704
getgcpfactor: 38600704
getgcpfactor: 38600704
getgcpfactor: 74986752
getgcpfactor: 38600704
getgcpfactor: 74986752
getgcpfactor: 38600704
getgcpfactor: 74986752
getgcpfactor: 87188304
getgcpfactor: 74986752
getgcpfactor: 38600704
getgcpfactor: 74986752
getgcpfactor: 38600704
getgcpfactor: 74986752
getgcpfactor: 38600704
getgcpfactor: 74986752
getgcpfactor: 38600704
getgcpfactor: 74986752
getgcpfactor: 38600704
getgcpfactor: 74986752
getgcpfactor: 38600704
getgcpfactor: 74986752
getgcpfactor: 38600704
getgcpfactor: 74986752
getgcpfactor: 38600704
getgcpfactor: 74986752
getgcpfactor: 38600704
getgcpfactor: 74986752
getgcpfactor: 38600704
getgcpfactor: 74986752
getgcpfactor: 74986752
getgcpfactor: 87188304
getgcpfactor: 87188304
getgcpfactor: 74986752
getgcpfactor: 38600704
getgcpfactor: 74986752
getgcpfactor: 38600704
getgcpfactor: 74986752
getgcpfactor: 38600704
getgcpfactor: 74986752
getgcpfactor: 38600704
getgcpfactor: 74986752
getgcpfactor: 38600704
getgcpfactor: 74986752
getgcpfactor: 38600704
getgcpfactor: 74986752
getgcpfactor: 38600704
getgcpfactor: 74986752
getgcpfactor: 38600704
getgcpfactor: 74986752
getgcpfactor: 38600704
getgcpfactor: 74986752
getgcpfactor: 38600704
getgcpfactor: 74986752
getgcpfactor: 38600704
getgcpfactor: 74986752
getgcpfactor: 38600704
getgcpfactor: 74986752
getgcpfactor: 38600704
getgcpfactor: 74986752
getgcpfactor: 38600704
getgcpfactor: 74986752
getgcpfactor: 38600704
getgcpfactor: 74986752
getgcpfactor: 87188304
getgcpfactor: 74986752
getgcpfactor: 38600704
getgcpfactor: 74986752
getgcpfactor: 38600704
getgcpfactor: 74986752
getgcpfactor: 38600704
getgcpfactor: 74986752
getgcpfactor: 38600704
getgcpfactor: 74986752
getgcpfactor: 87188304
getgcpfactor: 74986752
getgcpfactor: 38600704
getgcpfactor: 74986752
getgcpfactor: 87188304
getgcpfactor: 74986752
getgcpfactor: 87188304
getgcpfactor: 74986752
getgcpfactor: 38600704
getgcpfactor: 74986752
getgcpfactor: 38600704
getgcpfactor: 74986752
getgcpfactor: 38600704
getgcpfactor: 74986752
getgcpfactor: 38600704
getgcpfactor: 74986752
getgcpfactor: 38600704
getgcpfactor: 74986752
getgcpfactor: 38600704
getgcpfactor: 74986752
getgcpfactor: 38600704
getgcpfactor: 74986752
getgcpfactor: 87188304
getgcpfactor: 74986752
getgcpfactor: 38600704
getgcpfactor: 74986752
getgcpfactor: 87188304
getgcpfactor: 74986752
getgcpfactor: 38600704
getgcpfactor: 74986752
getgcpfactor: 38600704
getgcpfactor: 74986752
getgcpfactor: 38600704
getgcpfactor: 74986752
getgcpfactor: 38600704
getgcpfactor: 74986752
getgcpfactor: 38600704
getgcpfactor: 74986752
getgcpfactor: 38600704
getgcpfactor: 38600704
getgcpfactor: 74986752
getgcpfactor: 74986752
getgcpfactor: 87188304
getgcpfactor: 38600704
getgcpfactor: 74986752
getgcpfactor: 38600704
getgcpfactor: 74986752
getgcpfactor: 38600704
getgcpfactor: 74986752
getgcpfactor: 38600704
getgcpfactor: 74986752
getgcpfactor: 87188304
getgcpfactor: 74986752
getgcpfactor: 38600704
getgcpfactor: 74986752
getgcpfactor: 38600704
getgcpfactor: 74986752
getgcpfactor: 38600704
getgcpfactor: 74986752
getgcpfactor: 87188304
getgcpfactor: 74986752
getgcpfactor: 38600704
getgcpfactor: 74986752
getgcpfactor: 74986752
getgcpfactor: 38600704
getgcpfactor: 87188304
getgcpfactor: 74986752
getgcpfactor: 38600704
getgcpfactor: 74986752
getgcpfactor: 87188304
getgcpfactor: 74986752
getgcpfactor: 74986752
getgcpfactor: 87188304
getgcpfactor: 87188304
getgcpfactor: 74986752
getgcpfactor: 38600704
getgcpfactor: 74986752
getgcpfactor: 38600704
getgcpfactor: 74986752
getgcpfactor: 87188304
getgcpfactor: 74986752
getgcpfactor: 87188304
getgcpfactor: 74986752
getgcpfactor: 87188304
getgcpfactor: 74986752
getgcpfactor: 38600704
getgcpfactor: 74986752
getgcpfactor: 38600704
getgcpfactor: 74986752
getgcpfactor: 38600704
getgcpfactor: 74986752
getgcpfactor: 87188304
getgcpfactor: 74986752
getgcpfactor: 87188304
getgcpfactor: 74986752
getgcpfactor: 38600704
getgcpfactor: 74986752
getgcpfactor: 38600704
getgcpfactor: 74986752
getgcpfactor: 38600704
getgcpfactor: 74986752
getgcpfactor: 38600704
getgcpfactor: 74986752
getgcpfactor: 38600704
getgcpfactor: 74986752
getgcpfactor: 38600704
getgcpfactor: 74986752
getgcpfactor: 38600704
getgcpfactor: 74986752
getgcpfactor: 87188304
getgcpfactor: 74986752
getgcpfactor: 38600704
getgcpfactor: 74986752
getgcpfactor: 87188304
getgcpfactor: 74986752
getgcpfactor: 38600704
getgcpfactor: 74986752
getgcpfactor: 87188304
getgcpfactor: 74986752
getgcpfactor: 87188304
getgcpfactor: 74986752
getgcpfactor: 38600704
getgcpfactor: 74986752
getgcpfactor: 74986752
getgcpfactor: 38600704
getgcpfactor: 87188304
getgcpfactor: 74986752
getgcpfactor: 38600704
getgcpfactor: 74986752
getgcpfactor: 74986752
getgcpfactor: 38600704
getgcpfactor: 87188304
getgcpfactor: 74986752
getgcpfactor: 74986752
getgcpfactor: 38600704
getgcpfactor: 87188304
getgcpfactor: 74986752
getgcpfactor: 87188304
getgcpfactor: 74986752
getgcpfactor: 38600704
getgcpfactor: 74986752
getgcpfactor: 74986752
getgcpfactor: 87188304
getgcpfactor: 87188304
getgcpfactor: 74986752
getgcpfactor: 38600704
getgcpfactor: 74986752
getgcpfactor: 74986752
getgcpfactor: 87188304
getgcpfactor: 38600704
getgcpfactor: 74986752
getgcpfactor: 74986752
getgcpfactor: 87188304
getgcpfactor: 38600704
getgcpfactor: 74986752
getgcpfactor: 87188304
getgcpfactor: 74986752
getgcpfactor: 38600704
getgcpfactor: 74986752
getgcpfactor: 74986752
getgcpfactor: 38600704
getgcpfactor: 87188304
getgcpfactor: 74986752
getgcpfactor: 38600704
getgcpfactor: 74986752
getgcpfactor: 38600704
getgcpfactor: 74986752
getgcpfactor: 74986752
getgcpfactor: 38600704
getgcpfactor: 87188304
getgcpfactor: 74986752
getgcpfactor: 38600704
getgcpfactor: 74986752
getgcpfactor: 38600704
getgcpfactor: 74986752
getgcpfactor: 74986752
getgcpfactor: 38600704
getgcpfactor: 87188304
getgcpfactor: 74986752
getgcpfactor: 38600704
getgcpfactor: 74986752
getgcpfactor: 74986752
getgcpfactor: 38600704
getgcpfactor: 87188304
getgcpfactor: 74986752
getgcpfactor: 38600704
getgcpfactor: 74986752
getgcpfactor: 38600704
getgcpfactor: 74986752
getgcpfactor: 38600704
getgcpfactor: 74986752
getgcpfactor: 74986752
getgcpfactor: 38600704
getgcpfactor: 87188304
getgcpfactor: 74986752
getgcpfactor: 38600704
getgcpfactor: 74986752
getgcpfactor: 38600704
getgcpfactor: 74986752
getgcpfactor: 74986752
getgcpfactor: 87188304
getgcpfactor: 38600704
getgcpfactor: 74986752
getgcpfactor: 87188304
getgcpfactor: 74986752
getgcpfactor: 38600704
getgcpfactor: 74986752
getgcpfactor: 74986752
getgcpfactor: 38600704
getgcpfactor: 87188304
getgcpfactor: 74986752
getgcpfactor: 38600704
getgcpfactor: 74986752
getgcpfactor: 87188304
getgcpfactor: 74986752
getgcpfactor: 38600704
getgcpfactor: 74986752
getgcpfactor: 87188304
getgcpfactor: 74986752
getgcpfactor: 87188304
getgcpfactor: 74986752
getgcpfactor: 38600704
getgcpfactor: 74986752
getgcpfactor: 38600704
getgcpfactor: 74986752
getgcpfactor: 38600704
getgcpfactor: 74986752
getgcpfactor: 38600704
getgcpfactor: 74986752
getgcpfactor: 38600704
getgcpfactor: 74986752
getgcpfactor: 87188304
getgcpfactor: 74986752
getgcpfactor: 87188304
getgcpfactor: 74986752
getgcpfactor: 87188304
getgcpfactor: 74986752
getgcpfactor: 87188304
getgcpfactor: 74986752
getgcpfactor: 74986752
getgcpfactor: 87188304
getgcpfactor: 38600704
getgcpfactor: 74986752
getgcpfactor: 38600704
getgcpfactor: 74986752
getgcpfactor: 38600704
getgcpfactor: 74986752
getgcpfactor: 38600704
getgcpfactor: 74986752
getgcpfactor: 38600704
getgcpfactor: 74986752
getgcpfactor: 38600704
getgcpfactor: 74986752
getgcpfactor: 38600704
getgcpfactor: 74986752
getgcpfactor: 38600704
getgcpfactor: 74986752
getgcpfactor: 38600704
getgcpfactor: 74986752
getgcpfactor: 38600704
getgcpfactor: 74986752
getgcpfactor: 38600704
getgcpfactor: 74986752
getgcpfactor: 38600704
getgcpfactor: 74986752
getgcpfactor: 38600704
getgcpfactor: 74986752
getgcpfactor: 38600704
getgcpfactor: 74986752
getgcpfactor: 74986752
getgcpfactor: 87188304
getgcpfactor: 38600704
getgcpfactor: 74986752
getgcpfactor: 38600704
getgcpfactor: 74986752
getgcpfactor: 38600704
getgcpfactor: 74986752
getgcpfactor: 38600704
getgcpfactor: 74986752
getgcpfactor: 38600704
getgcpfactor: 74986752
getgcpfactor: 38600704
getgcpfactor: 74986752
getgcpfactor: 87188304
getgcpfactor: 74986752
getgcpfactor: 38600704
getgcpfactor: 74986752
getgcpfactor: 38600704
getgcpfactor: 74986752
getgcpfactor: 38600704
getgcpfactor: 74986752
getgcpfactor: 38600704
getgcpfactor: 74986752
getgcpfactor: 38600704
getgcpfactor: 74986752
getgcpfactor: 74986752
getgcpfactor: 87188304
getgcpfactor: 87188304
getgcpfactor: 74986752
getgcpfactor: 38600704
getgcpfactor: 74986752
getgcpfactor: 87188304
getgcpfactor: 74986752
getgcpfactor: 38600704
getgcpfactor: 74986752
getgcpfactor: 38600704
getgcpfactor: 74986752
getgcpfactor: 38600704
getgcpfactor: 74986752
getgcpfactor: 38600704
getgcpfactor: 74986752
getgcpfactor: 38600704
getgcpfactor: 74986752
getgcpfactor: 38600704
getgcpfactor: 74986752
getgcpfactor: 87188304
getgcpfactor: 74986752
getgcpfactor: 87188304
getgcpfactor: 74986752
getgcpfactor: 74986752
getgcpfactor: 87188304
getgcpfactor: 38600704
getgcpfactor: 74986752
getgcpfactor: 87188304
getgcpfactor: 74986752
getgcpfactor: 87188304
getgcpfactor: 74986752
getgcpfactor: 38600704
getgcpfactor: 74986752
getgcpfactor: 38600704
getgcpfactor: 74986752
getgcpfactor: 38600704
getgcpfactor: 74986752
getgcpfactor: 38600704
getgcpfactor: 74986752
getgcpfactor: 38600704
getgcpfactor: 74986752
getgcpfactor: 38600704
getgcpfactor: 74986752
getgcpfactor: 38600704
getgcpfactor: 74986752
getgcpfactor: 38600704
getgcpfactor: 74986752
getgcpfactor: 38600704
getgcpfactor: 74986752
getgcpfactor: 38600704
getgcpfactor: 74986752
getgcpfactor: 38600704
getgcpfactor: 74986752
getgcpfactor: 38600704
getgcpfactor: 74986752
getgcpfactor: 38600704
getgcpfactor: 74986752
getgcpfactor: 38600704
getgcpfactor: 74986752
getgcpfactor: 87188304
getgcpfactor: 74986752
getgcpfactor: 38600704
getgcpfactor: 74986752
getgcpfactor: 38600704
getgcpfactor: 74986752
getgcpfactor: 38600704
getgcpfactor: 74986752
getgcpfactor: 38600704
getgcpfactor: 74986752
getgcpfactor: 38600704
getgcpfactor: 74986752
getgcpfactor: 38600704
getgcpfactor: 74986752
getgcpfactor: 38600704
getgcpfactor: 74986752
getgcpfactor: 38600704
getgcpfactor: 74986752
getgcpfactor: 38600704
getgcpfactor: 74986752
getgcpfactor: 38600704
getgcpfactor: 74986752
getgcpfactor: 38600704
getgcpfactor: 74986752
getgcpfactor: 38600704
getgcpfactor: 74986752
getgcpfactor: 38600704
getgcpfactor: 74986752
getgcpfactor: 38600704
getgcpfactor: 74986752
getgcpfactor: 38600704
getgcpfactor: 74986752
getgcpfactor: 38600704
getgcpfactor: 74986752
getgcpfactor: 38600704
getgcpfactor: 74986752
getgcpfactor: 38600704
getgcpfactor: 74986752
getgcpfactor: 38600704
getgcpfactor: 74986752
getgcpfactor: 38600704
getgcpfactor: 74986752
getgcpfactor: 38600704
getgcpfactor: 74986752
getgcpfactor: 38600704
getgcpfactor: 74986752
getgcpfactor: 38600704
getgcpfactor: 74986752
getgcpfactor: 38600704
getgcpfactor: 74986752
getgcpfactor: 38600704
getgcpfactor: 74986752
getgcpfactor: 38600704
getgcpfactor: 74986752
getgcpfactor: 38600704
getgcpfactor: 74986752
getgcpfactor: 38600704
getgcpfactor: 74986752
getgcpfactor: 38600704
getgcpfactor: 74986752
getgcpfactor: 74986752
getgcpfactor: 38600704
getgcpfactor: 87188304
getgcpfactor: 74986752
getgcpfactor: 38600704
getgcpfactor: 74986752
getgcpfactor: 38600704
getgcpfactor: 74986752
getgcpfactor: 38600704
getgcpfactor: 74986752
getgcpfactor: 38600704
getgcpfactor: 74986752
getgcpfactor: 38600704
getgcpfactor: 74986752
getgcpfactor: 38600704
getgcpfactor: 74986752
getgcpfactor: 87188304
getgcpfactor: 74986752
getgcpfactor: 74986752
getgcpfactor: 38600704
getgcpfactor: 87188304
getgcpfactor: 74986752
getgcpfactor: 87188304
getgcpfactor: 74986752
getgcpfactor: 87188304
getgcpfactor: 74986752
getgcpfactor: 74986752
getgcpfactor: 38600704
getgcpfactor: 87188304
getgcpfactor: 74986752
getgcpfactor: 74986752
getgcpfactor: 38600704
getgcpfactor: 87188304
getgcpfactor: 74986752
getgcpfactor: 87188304
getgcpfactor: 74986752
getgcpfactor: 87188304
getgcpfactor: 74986752
getgcpfactor: 74986752
getgcpfactor: 87188304
getgcpfactor: 87188304
getgcpfactor: 74986752
getgcpfactor: 87188304
getgcpfactor: 74986752
getgcpfactor: 74986752
getgcpfactor: 38600704
getgcpfactor: 87188304
getgcpfactor: 74986752
getgcpfactor: 38600704
getgcpfactor: 74986752
getgcpfactor: 38600704
getgcpfactor: 74986752
getgcpfactor: 38600704
getgcpfactor: 74986752
getgcpfactor: 87188304
getgcpfactor: 74986752
getgcpfactor: 38600704
getgcpfactor: 74986752
getgcpfactor: 38600704
getgcpfactor: 74986752
getgcpfactor: 38600704
getgcpfactor: 74986752
getgcpfactor: 87188304
getgcpfactor: 74986752
getgcpfactor: 38600704
getgcpfactor: 74986752
getgcpfactor: 38600704
getgcpfactor: 74986752
getgcpfactor: 38600704
getgcpfactor: 74986752
getgcpfactor: 38600704
getgcpfactor: 74986752
getgcpfactor: 38600704
getgcpfactor: 74986752
getgcpfactor: 38600704
getgcpfactor: 74986752
getgcpfactor: 38600704
getgcpfactor: 74986752
getgcpfactor: 38600704
getgcpfactor: 74986752
getgcpfactor: 38600704
getgcpfactor: 74986752
getgcpfactor: 38600704
getgcpfactor: 74986752
getgcpfactor: 38600704
getgcpfactor: 74986752
getgcpfactor: 38600704
getgcpfactor: 74986752
getgcpfactor: 38600704
getgcpfactor: 74986752
getgcpfactor: 38600704
getgcpfactor: 74986752
getgcpfactor: 38600704
getgcpfactor: 74986752
getgcpfactor: 38600704
getgcpfactor: 74986752
getgcpfactor: 38600704
getgcpfactor: 74986752
getgcpfactor: 74986752
getgcpfactor: 38600704
getgcpfactor: 87188304
getgcpfactor: 74986752
getgcpfactor: 38600704
getgcpfactor: 74986752
getgcpfactor: 38600704
getgcpfactor: 74986752
getgcpfactor: 38600704
getgcpfactor: 74986752
getgcpfactor: 38600704
getgcpfactor: 74986752
getgcpfactor: 74986752
getgcpfactor: 38600704
getgcpfactor: 87188304
getgcpfactor: 74986752
getgcpfactor: 38600704
getgcpfactor: 74986752
getgcpfactor: 38600704
getgcpfactor: 74986752
getgcpfactor: 38600704
getgcpfactor: 74986752
getgcpfactor: 38600704
getgcpfactor: 74986752
getgcpfactor: 74986752
getgcpfactor: 87188304
getgcpfactor: 38600704
getgcpfactor: 74986752
getgcpfactor: 87188304
getgcpfactor: 74986752
getgcpfactor: 87188304
getgcpfactor: 74986752
getgcpfactor: 87188304
getgcpfactor: 74986752
getgcpfactor: 87188304
getgcpfactor: 74986752
getgcpfactor: 87188304
getgcpfactor: 74986752
getgcpfactor: 87188304
getgcpfactor: 74986752
getgcpfactor: 38600704
getgcpfactor: 74986752
getgcpfactor: 87188304
getgcpfactor: 74986752
getgcpfactor: 38600704
getgcpfactor: 74986752
getgcpfactor: 74986752
getgcpfactor: 87188304
getgcpfactor: 38600704
getgcpfactor: 74986752
getgcpfactor: 38600704
getgcpfactor: 74986752
getgcpfactor: 38600704
getgcpfactor: 74986752
getgcpfactor: 38600704
getgcpfactor: 74986752
getgcpfactor: 38600704
getgcpfactor: 74986752
getgcpfactor: 38600704
getgcpfactor: 74986752
getgcpfactor: 38600704
getgcpfactor: 74986752
getgcpfactor: 38600704
getgcpfactor: 74986752
getgcpfactor: 38600704
getgcpfactor: 74986752
getgcpfactor: 38600704
getgcpfactor: 74986752
getgcpfactor: 38600704
getgcpfactor: 74986752
getgcpfactor: 38600704
getgcpfactor: 74986752
getgcpfactor: 87188304
getgcpfactor: 74986752
getgcpfactor: 38600704
getgcpfactor: 74986752
getgcpfactor: 87188304
getgcpfactor: 74986752
getgcpfactor: 87188304
getgcpfactor: 74986752
getgcpfactor: 38600704
getgcpfactor: 74986752
getgcpfactor: 38600704
getgcpfactor: 74986752
getgcpfactor: 38600704
getgcpfactor: 74986752
getgcpfactor: 38600704
getgcpfactor: 74986752
getgcpfactor: 38600704
getgcpfactor: 74986752
getgcpfactor: 38600704
getgcpfactor: 74986752
getgcpfactor: 38600704
getgcpfactor: 74986752
getgcpfactor: 38600704
getgcpfactor: 74986752
getgcpfactor: 38600704
getgcpfactor: 74986752
getgcpfactor: 38600704
getgcpfactor: 74986752
getgcpfactor: 38600704
getgcpfactor: 74986752
getgcpfactor: 38600704
getgcpfactor: 74986752
getgcpfactor: 38600704
getgcpfactor: 74986752
getgcpfactor: 38600704
getgcpfactor: 74986752
getgcpfactor: 38600704
getgcpfactor: 74986752
getgcpfactor: 38600704
getgcpfactor: 74986752
getgcpfactor: 38600704
getgcpfactor: 74986752
getgcpfactor: 38600704
getgcpfactor: 74986752
getgcpfactor: 74986752
getgcpfactor: 38600704
getgcpfactor: 87188304
getgcpfactor: 74986752
getgcpfactor: 38600704
getgcpfactor: 74986752
getgcpfactor: 38600704
getgcpfactor: 74986752
getgcpfactor: 38600704
getgcpfactor: 74986752
getgcpfactor: 38600704
getgcpfactor: 74986752
getgcpfactor: 87188304
getgcpfactor: 74986752
getgcpfactor: 38600704
getgcpfactor: 74986752
getgcpfactor: 87188304
getgcpfactor: 74986752
getgcpfactor: 38600704
getgcpfactor: 74986752
getgcpfactor: 38600704
getgcpfactor: 74986752
getgcpfactor: 38600704
getgcpfactor: 74986752
getgcpfactor: 38600704
getgcpfactor: 74986752
getgcpfactor: 38600704
getgcpfactor: 74986752
getgcpfactor: 38600704
getgcpfactor: 74986752
getgcpfactor: 38600704
getgcpfactor: 74986752
getgcpfactor: 38600704
getgcpfactor: 74986752
getgcpfactor: 38600704
getgcpfactor: 74986752
getgcpfactor: 38600704
getgcpfactor: 74986752
getgcpfactor: 38600704
getgcpfactor: 74986752
getgcpfactor: 38600704
getgcpfactor: 74986752
getgcpfactor: 38600704
getgcpfactor: 74986752
getgcpfactor: 87188304
getgcpfactor: 74986752
getgcpfactor: 38600704
getgcpfactor: 74986752
getgcpfactor: 38600704
getgcpfactor: 74986752
getgcpfactor: 38600704
getgcpfactor: 74986752
getgcpfactor: 38600704
getgcpfactor: 74986752
getgcpfactor: 38600704
getgcpfactor: 74986752
getgcpfactor: 38600704
getgcpfactor: 74986752
getgcpfactor: 38600704
getgcpfactor: 74986752
getgcpfactor: 38600704
getgcpfactor: 74986752
getgcpfactor: 38600704
getgcpfactor: 74986752
getgcpfactor: 38600704
getgcpfactor: 74986752
getgcpfactor: 38600704
getgcpfactor: 74986752
getgcpfactor: 38600704
getgcpfactor: 74986752
getgcpfactor: 38600704
getgcpfactor: 74986752
getgcpfactor: 38600704
getgcpfactor: 74986752
getgcpfactor: 38600704
getgcpfactor: 74986752
getgcpfactor: 38600704
getgcpfactor: 74986752
getgcpfactor: 38600704
getgcpfactor: 74986752
getgcpfactor: 38600704
getgcpfactor: 74986752
getgcpfactor: 38600704
getgcpfactor: 74986752
getgcpfactor: 38600704
getgcpfactor: 74986752
getgcpfactor: 38600704
getgcpfactor: 74986752
getgcpfactor: 38600704
getgcpfactor: 74986752
getgcpfactor: 38600704
getgcpfactor: 74986752
getgcpfactor: 38600704
getgcpfactor: 74986752
getgcpfactor: 38600704
getgcpfactor: 74986752
getgcpfactor: 38600704
getgcpfactor: 74986752
getgcpfactor: 38600704
getgcpfactor: 74986752
getgcpfactor: 87188304
getgcpfactor: 74986752
getgcpfactor: 38600704
getgcpfactor: 74986752
getgcpfactor: 38600704
getgcpfactor: 74986752
getgcpfactor: 38600704
getgcpfactor: 74986752
getgcpfactor: 38600704
getgcpfactor: 74986752
getgcpfactor: 38600704
getgcpfactor: 74986752
getgcpfactor: 38600704
getgcpfactor: 74986752
getgcpfactor: 38600704
getgcpfactor: 74986752
getgcpfactor: 38600704
getgcpfactor: 74986752
getgcpfactor: 38600704
getgcpfactor: 74986752
getgcpfactor: 38600704
getgcpfactor: 74986752
getgcpfactor: 38600704
getgcpfactor: 74986752
getgcpfactor: 38600704
getgcpfactor: 74986752
getgcpfactor: 38600704
getgcpfactor: 74986752
getgcpfactor: 38600704
getgcpfactor: 74986752
getgcpfactor: 38600704
getgcpfactor: 74986752
getgcpfactor: 38600704
getgcpfactor: 74986752
getgcpfactor: 38600704
getgcpfactor: 74986752
getgcpfactor: 38600704
getgcpfactor: 74986752
getgcpfactor: 38600704
getgcpfactor: 74986752
getgcpfactor: 38600704
getgcpfactor: 74986752
getgcpfactor: 38600704
getgcpfactor: 74986752
getgcpfactor: 38600704
getgcpfactor: 74986752
getgcpfactor: 38600704
getgcpfactor: 74986752
getgcpfactor: 38600704
getgcpfactor: 74986752
getgcpfactor: 87188304
getgcpfactor: 74986752
getgcpfactor: 38600704
getgcpfactor: 74986752
getgcpfactor: 38600704
getgcpfactor: 74986752
getgcpfactor: 38600704
getgcpfactor: 74986752
getgcpfactor: 38600704
getgcpfactor: 74986752
getgcpfactor: 38600704
getgcpfactor: 74986752
getgcpfactor: 38600704
getgcpfactor: 74986752
getgcpfactor: 38600704
getgcpfactor: 74986752
getgcpfactor: 38600704
getgcpfactor: 74986752
getgcpfactor: 38600704
getgcpfactor: 74986752
getgcpfactor: 38600704
getgcpfactor: 74986752
getgcpfactor: 38600704
getgcpfactor: 74986752
getgcpfactor: 38600704
getgcpfactor: 74986752
getgcpfactor: 38600704
getgcpfactor: 74986752
getgcpfactor: 87188304
getgcpfactor: 74986752
getgcpfactor: 38600704
getgcpfactor: 74986752
getgcpfactor: 38600704
getgcpfactor: 74986752
getgcpfactor: 38600704
getgcpfactor: 74986752
getgcpfactor: 38600704
getgcpfactor: 74986752
getgcpfactor: 38600704
getgcpfactor: 74986752
getgcpfactor: 38600704
getgcpfactor: 74986752
getgcpfactor: 38600704
getgcpfactor: 74986752
getgcpfactor: 87188304
getgcpfactor: 74986752
getgcpfactor: 38600704
getgcpfactor: 74986752
getgcpfactor: 38600704
getgcpfactor: 74986752
getgcpfactor: 38600704
getgcpfactor: 74986752
getgcpfactor: 38600704
getgcpfactor: 74986752
getgcpfactor: 38600704
getgcpfactor: 74986752
getgcpfactor: 38600704
getgcpfactor: 74986752
getgcpfactor: 38600704
getgcpfactor: 74986752
getgcpfactor: 38600704
getgcpfactor: 74986752
getgcpfactor: 38600704
getgcpfactor: 74986752
getgcpfactor: 38600704
getgcpfactor: 74986752
getgcpfactor: 38600704
getgcpfactor: 74986752
getgcpfactor: 38600704
getgcpfactor: 74986752
getgcpfactor: 38600704
getgcpfactor: 74986752
getgcpfactor: 38600704
getgcpfactor: 74986752
getgcpfactor: 38600704
getgcpfactor: 74986752
getgcpfactor: 38600704
getgcpfactor: 74986752
getgcpfactor: 38600704
getgcpfactor: 74986752
getgcpfactor: 38600704
getgcpfactor: 74986752
getgcpfactor: 38600704
getgcpfactor: 74986752
getgcpfactor: 38600704
getgcpfactor: 74986752
getgcpfactor: 38600704
getgcpfactor: 74986752
getgcpfactor: 38600704
getgcpfactor: 74986752
getgcpfactor: 38600704
getgcpfactor: 74986752
getgcpfactor: 38600704
getgcpfactor: 74986752
getgcpfactor: 38600704
getgcpfactor: 74986752
getgcpfactor: 38600704
getgcpfactor: 74986752
getgcpfactor: 38600704
getgcpfactor: 74986752
getgcpfactor: 38600704
getgcpfactor: 74986752
getgcpfactor: 38600704
getgcpfactor: 74986752
getgcpfactor: 38600704
getgcpfactor: 74986752
getgcpfactor: 38600704
getgcpfactor: 74986752
getgcpfactor: 38600704
getgcpfactor: 74986752
getgcpfactor: 38600704
getgcpfactor: 74986752
getgcpfactor: 38600704
getgcpfactor: 74986752
getgcpfactor: 38600704
getgcpfactor: 74986752
getgcpfactor: 38600704
getgcpfactor: 74986752
getgcpfactor: 38600704
getgcpfactor: 74986752
getgcpfactor: 38600704
getgcpfactor: 74986752
getgcpfactor: 38600704
getgcpfactor: 74986752
getgcpfactor: 38600704
getgcpfactor: 74986752
getgcpfactor: 38600704
getgcpfactor: 74986752
getgcpfactor: 38600704
getgcpfactor: 74986752
getgcpfactor: 38600704
getgcpfactor: 74986752
getgcpfactor: 38600704
getgcpfactor: 74986752
getgcpfactor: 38600704
getgcpfactor: 74986752
getgcpfactor: 38600704
getgcpfactor: 74986752
getgcpfactor: 38600704
getgcpfactor: 74986752
getgcpfactor: 38600704
getgcpfactor: 74986752
getgcpfactor: 38600704
getgcpfactor: 74986752
getgcpfactor: 38600704
getgcpfactor: 74986752
getgcpfactor: 87188304
getgcpfactor: 74986752
getgcpfactor: 38600704
getgcpfactor: 74986752
getgcpfactor: 38600704
getgcpfactor: 74986752
getgcpfactor: 38600704
getgcpfactor: 74986752
getgcpfactor: 38600704
getgcpfactor: 74986752
getgcpfactor: 38600704
getgcpfactor: 74986752
getgcpfactor: 38600704
getgcpfactor: 74986752
getgcpfactor: 38600704
getgcpfactor: 74986752
getgcpfactor: 38600704
getgcpfactor: 74986752
getgcpfactor: 38600704
getgcpfactor: 74986752
getgcpfactor: 38600704
getgcpfactor: 74986752
getgcpfactor: 38600704
getgcpfactor: 74986752
getgcpfactor: 38600704
getgcpfactor: 74986752
getgcpfactor: 38600704
getgcpfactor: 74986752
getgcpfactor: 87188304
getgcpfactor: 74986752
getgcpfactor: 87188304
getgcpfactor: 74986752
getgcpfactor: 38600704
getgcpfactor: 74986752
getgcpfactor: 38600704
getgcpfactor: 74986752
getgcpfactor: 38600704
getgcpfactor: 74986752
getgcpfactor: 38600704
getgcpfactor: 74986752
getgcpfactor: 38600704
getgcpfactor: 74986752
getgcpfactor: 38600704
getgcpfactor: 74986752
getgcpfactor: 38600704
getgcpfactor: 74986752
getgcpfactor: 38600704
getgcpfactor: 74986752
getgcpfactor: 38600704
getgcpfactor: 74986752
getgcpfactor: 38600704
getgcpfactor: 74986752
getgcpfactor: 38600704
getgcpfactor: 74986752
getgcpfactor: 38600704
getgcpfactor: 74986752
getgcpfactor: 38600704
getgcpfactor: 74986752
getgcpfactor: 38600704
getgcpfactor: 74986752
getgcpfactor: 38600704
getgcpfactor: 74986752
getgcpfactor: 38600704
getgcpfactor: 74986752
getgcpfactor: 38600704
getgcpfactor: 74986752
getgcpfactor: 38600704
getgcpfactor: 74986752
getgcpfactor: 38600704
getgcpfactor: 74986752
getgcpfactor: 38600704
getgcpfactor: 74986752
getgcpfactor: 38600704
getgcpfactor: 74986752
getgcpfactor: 38600704
getgcpfactor: 74986752
getgcpfactor: 38600704
getgcpfactor: 74986752
getgcpfactor: 38600704
getgcpfactor: 74986752
getgcpfactor: 38600704
getgcpfactor: 74986752
getgcpfactor: 38600704
getgcpfactor: 74986752
getgcpfactor: 38600704
getgcpfactor: 74986752
getgcpfactor: 38600704
getgcpfactor: 74986752
getgcpfactor: 38600704
getgcpfactor: 74986752
getgcpfactor: 38600704
getgcpfactor: 74986752
getgcpfactor: 38600704
getgcpfactor: 74986752
getgcpfactor: 38600704
getgcpfactor: 74986752
getgcpfactor: 38600704
getgcpfactor: 74986752
getgcpfactor: 38600704
getgcpfactor: 74986752
getgcpfactor: 74986752
getgcpfactor: 87188304
getgcpfactor: 38600704
getgcpfactor: 74986752
getgcpfactor: 38600704
getgcpfactor: 74986752
getgcpfactor: 38600704
getgcpfactor: 74986752
getgcpfactor: 38600704
getgcpfactor: 74986752
getgcpfactor: 38600704
getgcpfactor: 74986752
getgcpfactor: 38600704
getgcpfactor: 74986752
getgcpfactor: 38600704
getgcpfactor: 74986752
getgcpfactor: 38600704
getgcpfactor: 74986752
getgcpfactor: 38600704
getgcpfactor: 74986752
getgcpfactor: 38600704
getgcpfactor: 74986752
getgcpfactor: 38600704
getgcpfactor: 74986752
getgcpfactor: 38600704
getgcpfactor: 74986752
getgcpfactor: 38600704
getgcpfactor: 74986752
getgcpfactor: 38600704
getgcpfactor: 74986752
getgcpfactor: 38600704
getgcpfactor: 74986752
getgcpfactor: 38600704
getgcpfactor: 74986752
getgcpfactor: 38600704
getgcpfactor: 74986752
getgcpfactor: 38600704
getgcpfactor: 74986752
getgcpfactor: 38600704
getgcpfactor: 74986752
getgcpfactor: 38600704
getgcpfactor: 74986752
getgcpfactor: 38600704
getgcpfactor: 74986752
getgcpfactor: 38600704
getgcpfactor: 74986752
getgcpfactor: 38600704
getgcpfactor: 74986752
getgcpfactor: 38600704
getgcpfactor: 74986752
getgcpfactor: 38600704
getgcpfactor: 74986752
getgcpfactor: 38600704
getgcpfactor: 74986752
getgcpfactor: 38600704
getgcpfactor: 74986752
getgcpfactor: 38600704
getgcpfactor: 74986752
getgcpfactor: 38600704
getgcpfactor: 74986752
getgcpfactor: 38600704
getgcpfactor: 74986752
getgcpfactor: 38600704
getgcpfactor: 74986752
getgcpfactor: 38600704
getgcpfactor: 74986752
getgcpfactor: 38600704
getgcpfactor: 74986752
getgcpfactor: 38600704
getgcpfactor: 74986752
getgcpfactor: 38600704
getgcpfactor: 74986752
getgcpfactor: 38600704
getgcpfactor: 74986752
getgcpfactor: 38600704
getgcpfactor: 74986752
getgcpfactor: 38600704
getgcpfactor: 74986752
getgcpfactor: 38600704
getgcpfactor: 74986752
getgcpfactor: 38600704
getgcpfactor: 74986752
getgcpfactor: 38600704
getgcpfactor: 74986752
getgcpfactor: 38600704
getgcpfactor: 74986752
getgcpfactor: 38600704
getgcpfactor: 74986752
getgcpfactor: 38600704
getgcpfactor: 74986752
getgcpfactor: 38600704
getgcpfactor: 74986752
getgcpfactor: 38600704
getgcpfactor: 74986752
getgcpfactor: 38600704
getgcpfactor: 74986752
getgcpfactor: 38600704
getgcpfactor: 74986752
getgcpfactor: 38600704
getgcpfactor: 74986752
getgcpfactor: 38600704
getgcpfactor: 74986752
getgcpfactor: 38600704
getgcpfactor: 74986752
getgcpfactor: 74986752
getgcpfactor: 38600704
getgcpfactor: 87188304
getgcpfactor: 74986752
getgcpfactor: 38600704
getgcpfactor: 74986752
getgcpfactor: 38600704
getgcpfactor: 74986752
getgcpfactor: 38600704
getgcpfactor: 74986752
getgcpfactor: 38600704
getgcpfactor: 38600704
getgcpfactor: 38600704
getgcpfactor: 38600704
getgcpfactor: 38600704
getgcpfactor: 74986752
getgcpfactor: 87188304
getgcpfactor: 74986752
getgcpfactor: 38600704
getgcpfactor: 74986752
getgcpfactor: 38600704
getgcpfactor: 74986752
getgcpfactor: 38600704
getgcpfactor: 74986752
getgcpfactor: 38600704
getgcpfactor: 74986752
getgcpfactor: 38600704
getgcpfactor: 38600704
getgcpfactor: 38600704
getgcpfactor: 38600704
getgcpfactor: 74986752
getgcpfactor: 74986752
getgcpfactor: 87188304
getgcpfactor: 74986752
getgcpfactor: 38600704
getgcpfactor: 87188304
getgcpfactor: 74986752
getgcpfactor: 87188304
getgcpfactor: 74986752
getgcpfactor: 38600704
getgcpfactor: 74986752
getgcpfactor: 87188304
getgcpfactor: 74986752
getgcpfactor: 87188304
getgcpfactor: 74986752
getgcpfactor: 38600704
getgcpfactor: 74986752
getgcpfactor: 87188304
getgcpfactor: 74986752
getgcpfactor: 38600704
getgcpfactor: 74986752
getgcpfactor: 74986752
getgcpfactor: 38600704
getgcpfactor: 87188304
getgcpfactor: 74986752
getgcpfactor: 38600704
getgcpfactor: 74986752
getgcpfactor: 38600704
getgcpfactor: 74986752
getgcpfactor: 87188304
getgcpfactor: 74986752
getgcpfactor: 38600704
getgcpfactor: 74986752
getgcpfactor: 38600704
getgcpfactor: 74986752
getgcpfactor: 38600704
getgcpfactor: 74986752
getgcpfactor: 38600704
getgcpfactor: 74986752
getgcpfactor: 38600704
getgcpfactor: 74986752
getgcpfactor: 38600704
getgcpfactor: 74986752
getgcpfactor: 74986752
getgcpfactor: 87188304
getgcpfactor: 38600704
getgcpfactor: 74986752
getgcpfactor: 38600704
getgcpfactor: 74986752
getgcpfactor: 38600704
getgcpfactor: 74986752
getgcpfactor: 38600704
getgcpfactor: 74986752
getgcpfactor: 38600704
getgcpfactor: 74986752
getgcpfactor: 87188304
getgcpfactor: 74986752
getgcpfactor: 38600704
getgcpfactor: 74986752
getgcpfactor: 87188304
getgcpfactor: 74986752
getgcpfactor: 38600704
getgcpfactor: 74986752
getgcpfactor: 38600704
getgcpfactor: 74986752
getgcpfactor: 38600704
getgcpfactor: 74986752
getgcpfactor: 74986752
getgcpfactor: 38600704
getgcpfactor: 87188304
getgcpfactor: 74986752
getgcpfactor: 38600704
getgcpfactor: 74986752
getgcpfactor: 38600704
getgcpfactor: 74986752
getgcpfactor: 38600704
getgcpfactor: 74986752
getgcpfactor: 38600704
getgcpfactor: 74986752
getgcpfactor: 38600704
getgcpfactor: 74986752
getgcpfactor: 38600704
getgcpfactor: 74986752
getgcpfactor: 38600704
getgcpfactor: 74986752
getgcpfactor: 38600704
getgcpfactor: 74986752
getgcpfactor: 38600704
getgcpfactor: 74986752
getgcpfactor: 38600704
getgcpfactor: 74986752
getgcpfactor: 38600704
getgcpfactor: 74986752
getgcpfactor: 38600704
getgcpfactor: 74986752
getgcpfactor: 38600704
getgcpfactor: 74986752
getgcpfactor: 38600704
getgcpfactor: 74986752
getgcpfactor: 38600704
getgcpfactor: 74986752
getgcpfactor: 74986752
getgcpfactor: 38600704
getgcpfactor: 87188304
getgcpfactor: 74986752
getgcpfactor: 87188304
getgcpfactor: 74986752
getgcpfactor: 87188304
getgcpfactor: 74986752
getgcpfactor: 74986752
getgcpfactor: 38600704
getgcpfactor: 74986752
getgcpfactor: 38600704
getgcpfactor: 74986752
getgcpfactor: 87188304
getgcpfactor: 87188304
getgcpfactor: 74986752
getgcpfactor: 38600704
getgcpfactor: 87188304
getgcpfactor: 87188304
getgcpfactor: 87188304
getgcpfactor: 87188304
getgcpfactor: 87188304
getgcpfactor: 87188304
getgcpfactor: 87188304
getgcpfactor: 87188304
getgcpfactor: 87188304
avoided miss
getgcpfactor: 87188304
avoided miss
getgcpfactor: 87188304
penalized hit
getgcpfactor: 87188304
getgcpfactor: 87188304
getgcpfactor: 87188304
getgcpfactor: 87188304
getgcpfactor: 87188304
getgcpfactor: 87188304
getgcpfactor: 87188304
getgcpfactor: 87188304
getgcpfactor: 87188304
getgcpfactor: 87188304
getgcpfactor: 87188304
getgcpfactor: 87188304
getgcpfactor: 87188304
getgcpfactor: 87188304
getgcpfactor: 87188304
getgcpfactor: 87188304
getgcpfactor: 87188304
getgcpfactor: 87188304
getgcpfactor: 87188304
getgcpfactor: 87188304
getgcpfactor: 87188304
getgcpfactor: 87188304
penalized hit
getgcpfactor: 87188304
avoided miss
getgcpfactor: 87188304
avoided miss
getgcpfactor: 87188304
getgcpfactor: 87188304
penalized hit
getgcpfactor: 87188304
avoided miss
getgcpfactor: 87188304
avoided miss
getgcpfactor: 87188304
getgcpfactor: 87188304
getgcpfactor: 87188304
getgcpfactor: 87188304
penalized hit
getgcpfactor: 87188304
getgcpfactor: 87188304
penalized hit
getgcpfactor: 87188304
getgcpfactor: 87188304
getgcpfactor: 87188304
getgcpfactor: 87188304
getgcpfactor: 87188304
getgcpfactor: 87188304
getgcpfactor: 87188304
getgcpfactor: 87188304
getgcpfactor: 87188304
getgcpfactor: 87188304
getgcpfactor: 87188304
getgcpfactor: 87188304
getgcpfactor: 87188304
getgcpfactor: 87188304
getgcpfactor: 87188304
getgcpfactor: 87188304
getgcpfactor: 87188304
getgcpfactor: 87188304
getgcpfactor: 87188304
getgcpfactor: 87188304
getgcpfactor: 87188304
getgcpfactor: 87188304
getgcpfactor: 87188304
getgcpfactor: 87188304
getgcpfactor: 87188304
getgcpfactor: 87188304
getgcpfactor: 87188304
getgcpfactor: 87188304
getgcpfactor: 87188304
getgcpfactor: 87188304
getgcpfactor: 87188304
getgcpfactor: 87188304
getgcpfactor: 87188304
getgcpfactor: 87188304
getgcpfactor: 87188304
getgcpfactor: 87188304
getgcpfactor: 87188304
getgcpfactor: 87188304
getgcpfactor: 87188304
getgcpfactor: 87188304
getgcpfactor: 87188304
getgcpfactor: 87188304
getgcpfactor: 87188304
getgcpfactor: 87188304
getgcpfactor: 87188304
getgcpfactor: 87188304
getgcpfactor: 87188304
getgcpfactor: 87188304
getgcpfactor: 87188304
getgcpfactor: 87188304
getgcpfactor: 87188304
getgcpfactor: 87188304
getgcpfactor: 87188304
getgcpfactor: 87188304
getgcpfactor: 87188304
getgcpfactor: 87188304
getgcpfactor: 87188304
getgcpfactor: 87188304
getgcpfactor: 87188304
getgcpfactor: 87188304
getgcpfactor: 87188304
getgcpfactor: 87188304
getgcpfactor: 87188304
getgcpfactor: 87188304
getgcpfactor: 87188304
getgcpfactor: 87188304
getgcpfactor: 87188304
getgcpfactor: 87188304
getgcpfactor: 87188304
getgcpfactor: 87188304
getgcpfactor: 87188304
getgcpfactor: 87188304
getgcpfactor: 87188304
getgcpfactor: 87188304
getgcpfactor: 87188304
getgcpfactor: 87188304
getgcpfactor: 87188304
getgcpfactor: 87188304
getgcpfactor: 87188304
getgcpfactor: 87188304
getgcpfactor: 87188304
getgcpfactor: 87188304
penalized hit
getgcpfactor: 87188304
avoided miss
getgcpfactor: 87188304
avoided miss
getgcpfactor: 87188304
getgcpfactor: 87188304
getgcpfactor: 87188304
getgcpfactor: 87188304
getgcpfactor: 87188304
getgcpfactor: 87188304
getgcpfactor: 87188304
getgcpfactor: 87188304
getgcpfactor: 87188304
getgcpfactor: 87188304
getgcpfactor: 87188304
getgcpfactor: 87188304
getgcpfactor: 87188304
getgcpfactor: 87188304
getgcpfactor: 87188304
getgcpfactor: 87188304
getgcpfactor: 87188304
getgcpfactor: 87188304
getgcpfactor: 87188304
getgcpfactor: 87188304
getgcpfactor: 87188304
getgcpfactor: 87188304
getgcpfactor: 87188304
getgcpfactor: 87188304
getgcpfactor: 87188304
getgcpfactor: 87188304
getgcpfactor: 87188304
getgcpfactor: 87188304
getgcpfactor: 87188304
getgcpfactor: 87188304
getgcpfactor: 87188304
getgcpfactor: 87188304
getgcpfactor: 87188304
getgcpfactor: 87188304
getgcpfactor: 87188304
getgcpfactor: 87188304
getgcpfactor: 87188304
getgcpfactor: 87188304
getgcpfactor: 87188304
getgcpfactor: 87188304
getgcpfactor: 87188304
getgcpfactor: 87188304
getgcpfactor: 87188304
getgcpfactor: 87188304
getgcpfactor: 87188304
getgcpfactor: 87188304
getgcpfactor: 87188304
getgcpfactor: 87188304
getgcpfactor: 87188304
getgcpfactor: 87188304
getgcpfactor: 87188304
getgcpfactor: 87188304
getgcpfactor: 87188304
getgcpfactor: 87188304
getgcpfactor: 87188304
getgcpfactor: 87188304
getgcpfactor: 87188304
getgcpfactor: 87188304
getgcpfactor: 87188304
getgcpfactor: 87188304
getgcpfactor: 87188304
getgcpfactor: 87188304
getgcpfactor: 87188304
avoided miss
getgcpfactor: 87188304
getgcpfactor: 87188304
avoided miss
getgcpfactor: 87188304
getgcpfactor: 87188304
getgcpfactor: 87188304
getgcpfactor: 87188304
getgcpfactor: 87188304
getgcpfactor: 87188304
getgcpfactor: 87188304
getgcpfactor: 87188304
getgcpfactor: 87188304
getgcpfactor: 87188304
getgcpfactor: 87188304
getgcpfactor: 87188304
getgcpfactor: 87188304
getgcpfactor: 87188304
getgcpfactor: 87188304
getgcpfactor: 87188304
getgcpfactor: 87188304
getgcpfactor: 87188304
getgcpfactor: 87188304
getgcpfactor: 87188304
getgcpfactor: 87188304
getgcpfactor: 87188304
getgcpfactor: 87188304
getgcpfactor: 87188304
getgcpfactor: 87188304
getgcpfactor: 87188304
getgcpfactor: 87188304
getgcpfactor: 87188304
getgcpfactor: 87188304
getgcpfactor: 87188304
getgcpfactor: 87188304
getgcpfactor: 87188304
getgcpfactor: 87188304
getgcpfactor: 87188304
getgcpfactor: 87188304
getgcpfactor: 87188304
getgcpfactor: 87188304
getgcpfactor: 87188304
getgcpfactor: 87188304
getgcpfactor: 87188304
getgcpfactor: 87188304
getgcpfactor: 87188304
getgcpfactor: 87188304
getgcpfactor: 87188304
getgcpfactor: 87188304
getgcpfactor: 87188304
getgcpfactor: 87188304
getgcpfactor: 87188304
getgcpfactor: 87188304
getgcpfactor: 87188304
getgcpfactor: 87188304
getgcpfactor: 87188304
getgcpfactor: 87188304
getgcpfactor: 87188304
avoided miss
getgcpfactor: 87188304
getgcpfactor: 87188304
getgcpfactor: 87188304
getgcpfactor: 87188304
getgcpfactor: 87188304
getgcpfactor: 87188304
getgcpfactor: 87188304
getgcpfactor: 87188304
getgcpfactor: 87188304
getgcpfactor: 87188304
getgcpfactor: 87188304
getgcpfactor: 87188304
getgcpfactor: 87188304
getgcpfactor: 87188304
getgcpfactor: 87188304
getgcpfactor: 87188304
getgcpfactor: 87188304
getgcpfactor: 87188304
getgcpfactor: 87188304
getgcpfactor: 87188304
getgcpfactor: 87188304
getgcpfactor: 87188304
getgcpfactor: 87188304
getgcpfactor: 87188304
getgcpfactor: 87188304
getgcpfactor: 87188304
getgcpfactor: 87188304
getgcpfactor: 87188304
getgcpfactor: 87188304
getgcpfactor: 87188304
getgcpfactor: 87188304
getgcpfactor: 87188304
getgcpfactor: 87188304
getgcpfactor: 87188304
getgcpfactor: 87188304
getgcpfactor: 87188304
getgcpfactor: 87188304
getgcpfactor: 87188304
getgcpfactor: 87188304
getgcpfactor: 87188304
getgcpfactor: 87188304
getgcpfactor: 87188304
getgcpfactor: 87188304
getgcpfactor: 87188304
getgcpfactor: 87188304
getgcpfactor: 87188304
getgcpfactor: 87188304
getgcpfactor: 87188304
getgcpfactor: 87188304
getgcpfactor: 87188304
getgcpfactor: 87188304
getgcpfactor: 87188304
getgcpfactor: 87188304
getgcpfactor: 87188304
getgcpfactor: 87188304
getgcpfactor: 87188304
getgcpfactor: 87188304
getgcpfactor: 87188304
getgcpfactor: 87188304
getgcpfactor: 87188304
getgcpfactor: 87188304
getgcpfactor: 87188304
getgcpfactor: 87188304
getgcpfactor: 87188304
getgcpfactor: 87188304
getgcpfactor: 87188304
getgcpfactor: 87188304
getgcpfactor: 87188304
getgcpfactor: 87188304
getgcpfactor: 87188304
getgcpfactor: 87188304
getgcpfactor: 87188304
getgcpfactor: 87188304
getgcpfactor: 87188304
getgcpfactor: 87188304
getgcpfactor: 87188304
getgcpfactor: 87188304
getgcpfactor: 87188304
getgcpfactor: 87188304
getgcpfactor: 87188304
getgcpfactor: 87188304
getgcpfactor: 87188304
getgcpfactor: 87188304
getgcpfactor: 87188304
getgcpfactor: 87188304
getgcpfactor: 87188304
getgcpfactor: 87188304
getgcpfactor: 87188304
getgcpfactor: 87188304
getgcpfactor: 87188304
getgcpfactor: 87188304
getgcpfactor: 87188304
getgcpfactor: 87188304
getgcpfactor: 87188304
getgcpfactor: 87188304
getgcpfactor: 87188304
getgcpfactor: 87188304
getgcpfactor: 87188304
getgcpfactor: 87188304
getgcpfactor: 87188304
getgcpfactor: 87188304
getgcpfactor: 87188304
getgcpfactor: 87188304
getgcpfactor: 87188304
getgcpfactor: 87188304
getgcpfactor: 87188304
getgcpfactor: 87188304
getgcpfactor: 87188304
getgcpfactor: 87188304
getgcpfactor: 87188304
getgcpfactor: 87188304
getgcpfactor: 87188304
getgcpfactor: 87188304
getgcpfactor: 87188304
getgcpfactor: 87188304
getgcpfactor: 87188304
getgcpfactor: 87188304
getgcpfactor: 87188304
getgcpfactor: 87188304
getgcpfactor: 87188304
getgcpfactor: 87188304
getgcpfactor: 87188304
getgcpfactor: 87188304
getgcpfactor: 87188304
getgcpfactor: 87188304
getgcpfactor: 87188304
getgcpfactor: 87188304
getgcpfactor: 87188304
getgcpfactor: 87188304
getgcpfactor: 87188304
getgcpfactor: 87188304
getgcpfactor: 87188304
getgcpfactor: 87188304
getgcpfactor: 87188304
penalized hit
getgcpfactor: 87188304
getgcpfactor: 87188304
getgcpfactor: 87188304
getgcpfactor: 87188304
getgcpfactor: 87188304
getgcpfactor: 87188304
getgcpfactor: 87188304
getgcpfactor: 87188304
getgcpfactor: 87188304
getgcpfactor: 87188304
getgcpfactor: 87188304
getgcpfactor: 87188304
getgcpfactor: 87188304
getgcpfactor: 87188304
getgcpfactor: 87188304
getgcpfactor: 87188304
getgcpfactor: 87188304
getgcpfactor: 87188304
getgcpfactor: 87188304
getgcpfactor: 87188304
getgcpfactor: 87188304
getgcpfactor: 87188304
getgcpfactor: 87188304
getgcpfactor: 87188304
getgcpfactor: 87188304
getgcpfactor: 87188304
getgcpfactor: 87188304
getgcpfactor: 87188304
getgcpfactor: 87188304
getgcpfactor: 87188304
getgcpfactor: 87188304
getgcpfactor: 87188304
getgcpfactor: 87188304
getgcpfactor: 87188304
getgcpfactor: 87188304
getgcpfactor: 87188304
getgcpfactor: 87188304
getgcpfactor: 87188304
getgcpfactor: 87188304
getgcpfactor: 87188304
getgcpfactor: 87188304
getgcpfactor: 87188304
getgcpfactor: 87188304
getgcpfactor: 87188304
getgcpfactor: 87188304
getgcpfactor: 87188304
getgcpfactor: 87188304
getgcpfactor: 87188304
getgcpfactor: 87188304
getgcpfactor: 87188304
getgcpfactor: 87188304
getgcpfactor: 87188304
getgcpfactor: 87188304
getgcpfactor: 87188304
getgcpfactor: 87188304
getgcpfactor: 87188304
getgcpfactor: 87188304
getgcpfactor: 87188304
getgcpfactor: 87188304
getgcpfactor: 87188304
getgcpfactor: 87188304
getgcpfactor: 87188304
getgcpfactor: 87188304
getgcpfactor: 87188304
avoided miss
getgcpfactor: 87188304
getgcpfactor: 87188304
penalized hit
avoided miss
getgcpfactor: 87188304
getgcpfactor: 87188304
avoided miss
avoided miss
getgcpfactor: 87188304
getgcpfactor: 87188304
avoided miss
avoided miss
getgcpfactor: 87188304
getgcpfactor: 87188304
avoided miss
avoided miss
getgcpfactor: 87188304
getgcpfactor: 87188304
avoided miss
avoided miss
getgcpfactor: 87188304
getgcpfactor: 87188304
getgcpfactor: 87188304
getgcpfactor: 87188304
avoided miss
penalized hit
getgcpfactor: 87188304
getgcpfactor: 87188304
penalized hit
getgcpfactor: 87188304
getgcpfactor: 87188304
getgcpfactor: 87188304
getgcpfactor: 87188304
penalized hit
penalized hit
getgcpfactor: 87188304
getgcpfactor: 87188304
getgcpfactor: 87188304
getgcpfactor: 87188304
getgcpfactor: 87188304
getgcpfactor: 87188304
getgcpfactor: 87188304
getgcpfactor: 87188304
getgcpfactor: 87188304
getgcpfactor: 87188304
avoided miss
getgcpfactor: 87188304
getgcpfactor: 87188304
avoided miss
avoided miss
getgcpfactor: 87188304
getgcpfactor: 87188304
penalized hit
avoided miss
getgcpfactor: 87188304
getgcpfactor: 87188304
avoided miss
avoided miss
getgcpfactor: 87188304
getgcpfactor: 87188304
penalized hit
avoided miss
getgcpfactor: 87188304
getgcpfactor: 87188304
avoided miss
avoided miss
getgcpfactor: 87188304
getgcpfactor: 87188304
penalized hit
getgcpfactor: 87188304
getgcpfactor: 87188304
penalized hit
avoided miss
getgcpfactor: 87188304
getgcpfactor: 87188304
avoided miss
getgcpfactor: 87188304
getgcpfactor: 87188304
penalized hit
avoided miss
getgcpfactor: 87188304
getgcpfactor: 87188304
avoided miss
avoided miss
getgcpfactor: 87188304
getgcpfactor: 87188304
avoided miss
getgcpfactor: 87188304
getgcpfactor: 87188304
penalized hit
getgcpfactor: 87188304
getgcpfactor: 87188304
avoided miss
getgcpfactor: 87188304
getgcpfactor: 87188304
avoided miss
getgcpfactor: 87188304
getgcpfactor: 87188304
penalized hit
getgcpfactor: 87188304
getgcpfactor: 87188304
getgcpfactor: 87188304
getgcpfactor: 87188304
penalized hit
penalized hit
getgcpfactor: 87188304
getgcpfactor: 87188304
getgcpfactor: 74986752
getgcpfactor: 87188304
getgcpfactor: 87188304
getgcpfactor: 87188304
getgcpfactor: 87188304
getgcpfactor: 87188304
getgcpfactor: 87188304
getgcpfactor: 87188304
getgcpfactor: 87188304
avoided miss
getgcpfactor: 87188304
getgcpfactor: 87188304
penalized hit
avoided miss
getgcpfactor: 87188304
getgcpfactor: 87188304
avoided miss
getgcpfactor: 87188304
getgcpfactor: 87188304
getgcpfactor: 87188304
getgcpfactor: 87188304
getgcpfactor: 87188304
getgcpfactor: 87188304
getgcpfactor: 87188304
getgcpfactor: 87188304
getgcpfactor: 87188304
getgcpfactor: 87188304
getgcpfactor: 87188304
getgcpfactor: 87188304
getgcpfactor: 87188304
getgcpfactor: 87188304
getgcpfactor: 87188304
getgcpfactor: 87188304
getgcpfactor: 87188304
getgcpfactor: 87188304
getgcpfactor: 87188304
getgcpfactor: 87188304
getgcpfactor: 87188304
getgcpfactor: 87188304
getgcpfactor: 87188304
getgcpfactor: 87188304
getgcpfactor: 87188304
getgcpfactor: 87188304
getgcpfactor: 87188304
getgcpfactor: 87188304
getgcpfactor: 87188304
getgcpfactor: 87188304
getgcpfactor: 87188304
getgcpfactor: 87188304
getgcpfactor: 87188304
getgcpfactor: 87188304
getgcpfactor: 87188304
getgcpfactor: 87188304
avoided miss
getgcpfactor: 87188304
getgcpfactor: 87188304
getgcpfactor: 87188304
getgcpfactor: 87188304
getgcpfactor: 87188304
getgcpfactor: 87188304
getgcpfactor: 87188304
getgcpfactor: 87188304
getgcpfactor: 87188304
getgcpfactor: 87188304
getgcpfactor: 87188304
getgcpfactor: 87188304
getgcpfactor: 87188304
getgcpfactor: 87188304
getgcpfactor: 87188304
getgcpfactor: 87188304
getgcpfactor: 87188304
getgcpfactor: 87188304
getgcpfactor: 87188304
getgcpfactor: 87188304
getgcpfactor: 87188304
getgcpfactor: 87188304
getgcpfactor: 87188304
getgcpfactor: 87188304
penalized hit
getgcpfactor: 87188304
getgcpfactor: 87188304
penalized hit
getgcpfactor: 87188304
getgcpfactor: 87188304
getgcpfactor: 87188304
getgcpfactor: 87188304
penalized hit
avoided miss
getgcpfactor: 87188304
getgcpfactor: 87188304
avoided miss
getgcpfactor: 87188304
getgcpfactor: 87188304
penalized hit
getgcpfactor: 87188304
getgcpfactor: 87188304
penalized hit
getgcpfactor: 87188304
getgcpfactor: 87188304
getgcpfactor: 87188304
getgcpfactor: 87188304
penalized hit
getgcpfactor: 87188304
getgcpfactor: 87188304
penalized hit
getgcpfactor: 87188304
getgcpfactor: 87188304
getgcpfactor: 87188304
getgcpfactor: 87188304
getgcpfactor: 87188304
getgcpfactor: 87188304
penalized hit
getgcpfactor: 87188304
getgcpfactor: 87188304
getgcpfactor: 87188304
getgcpfactor: 87188304
getgcpfactor: 87188304
getgcpfactor: 87188304
penalized hit
avoided miss
getgcpfactor: 87188304
getgcpfactor: 87188304
avoided miss
avoided miss
getgcpfactor: 87188304
getgcpfactor: 87188304
avoided miss
getgcpfactor: 87188304
getgcpfactor: 87188304
getgcpfactor: 87188304
getgcpfactor: 87188304
avoided miss
getgcpfactor: 87188304
getgcpfactor: 87188304
avoided miss
penalized hit
getgcpfactor: 87188304
getgcpfactor: 87188304
getgcpfactor: 87188304
getgcpfactor: 87188304
getgcpfactor: 87188304
getgcpfactor: 87188304
getgcpfactor: 87188304
getgcpfactor: 87188304
getgcpfactor: 87188304
getgcpfactor: 87188304
getgcpfactor: 87188304
getgcpfactor: 87188304
avoided miss
getgcpfactor: 87188304
getgcpfactor: 87188304
avoided miss
getgcpfactor: 87188304
getgcpfactor: 87188304
getgcpfactor: 87188304
getgcpfactor: 87188304
penalized hit
getgcpfactor: 87188304
getgcpfactor: 87188304
penalized hit
getgcpfactor: 87188304
getgcpfactor: 87188304
getgcpfactor: 87188304
getgcpfactor: 87188304
getgcpfactor: 87188304
getgcpfactor: 87188304
getgcpfactor: 87188304
getgcpfactor: 87188304
getgcpfactor: 87188304
getgcpfactor: 87188304
getgcpfactor: 87188304
getgcpfactor: 87188304
getgcpfactor: 87188304
getgcpfactor: 87188304
getgcpfactor: 87188304
getgcpfactor: 87188304
getgcpfactor: 87188304
getgcpfactor: 87188304
getgcpfactor: 87188304
getgcpfactor: 87188304
getgcpfactor: 87188304
getgcpfactor: 87188304
getgcpfactor: 87188304
getgcpfactor: 87188304
getgcpfactor: 87188304
getgcpfactor: 87188304
getgcpfactor: 87188304
getgcpfactor: 87188304
getgcpfactor: 87188304
getgcpfactor: 87188304
getgcpfactor: 87188304
getgcpfactor: 87188304
getgcpfactor: 87188304
getgcpfactor: 87188304
getgcpfactor: 87188304
getgcpfactor: 87188304
getgcpfactor: 87188304
getgcpfactor: 87188304
getgcpfactor: 87188304
getgcpfactor: 87188304
getgcpfactor: 87188304
getgcpfactor: 87188304
getgcpfactor: 87188304
getgcpfactor: 87188304
getgcpfactor: 87188304
getgcpfactor: 87188304
getgcpfactor: 87188304
getgcpfactor: 87188304
getgcpfactor: 87188304
getgcpfactor: 87188304
avoided miss
getgcpfactor: 87188304
getgcpfactor: 87188304
avoided miss
getgcpfactor: 87188304
getgcpfactor: 87188304
getgcpfactor: 87188304
getgcpfactor: 87188304
getgcpfactor: 87188304
getgcpfactor: 87188304
penalized hit
avoided miss
getgcpfactor: 87188304
getgcpfactor: 87188304
avoided miss
avoided miss
getgcpfactor: 87188304
getgcpfactor: 87188304
avoided miss
penalized hit
getgcpfactor: 87188304
getgcpfactor: 87188304
penalized hit
getgcpfactor: 87188304
getgcpfactor: 87188304
getgcpfactor: 87188304
getgcpfactor: 87188304
getgcpfactor: 87188304
getgcpfactor: 87188304
getgcpfactor: 87188304
getgcpfactor: 87188304
getgcpfactor: 87188304
getgcpfactor: 87188304
getgcpfactor: 87188304
getgcpfactor: 87188304
getgcpfactor: 87188304
getgcpfactor: 87188304
getgcpfactor: 87188304
getgcpfactor: 87188304
getgcpfactor: 87188304
getgcpfactor: 87188304
avoided miss
getgcpfactor: 87188304
getgcpfactor: 87188304
avoided miss
penalized hit
getgcpfactor: 87188304
getgcpfactor: 87188304
getgcpfactor: 87188304
getgcpfactor: 87188304
getgcpfactor: 87188304
getgcpfactor: 87188304
getgcpfactor: 87188304
getgcpfactor: 87188304
getgcpfactor: 87188304
getgcpfactor: 87188304
getgcpfactor: 87188304
getgcpfactor: 87188304
getgcpfactor: 87188304
getgcpfactor: 87188304
getgcpfactor: 87188304
getgcpfactor: 87188304
penalized hit
avoided miss
getgcpfactor: 87188304
getgcpfactor: 87188304
avoided miss
avoided miss
getgcpfactor: 87188304
getgcpfactor: 87188304
avoided miss
getgcpfactor: 87188304
getgcpfactor: 87188304
getgcpfactor: 87188304
getgcpfactor: 87188304
penalized hit
penalized hit
getgcpfactor: 87188304
getgcpfactor: 87188304
getgcpfactor: 87188304
getgcpfactor: 87188304
getgcpfactor: 87188304
getgcpfactor: 87188304
avoided miss
getgcpfactor: 87188304
getgcpfactor: 87188304
penalized hit
getgcpfactor: 87188304
getgcpfactor: 87188304
getgcpfactor: 87188304
getgcpfactor: 87188304
getgcpfactor: 87188304
getgcpfactor: 87188304
getgcpfactor: 87188304
getgcpfactor: 87188304
getgcpfactor: 87188304
getgcpfactor: 87188304
getgcpfactor: 87188304
getgcpfactor: 87188304
getgcpfactor: 87188304
getgcpfactor: 87188304
penalized hit
getgcpfactor: 87188304
getgcpfactor: 87188304
penalized hit
avoided miss
getgcpfactor: 87188304
getgcpfactor: 87188304
avoided miss
avoided miss
getgcpfactor: 87188304
getgcpfactor: 87188304
avoided miss
penalized hit
getgcpfactor: 87188304
getgcpfactor: 87188304
getgcpfactor: 87188304
getgcpfactor: 87188304
getgcpfactor: 87188304
getgcpfactor: 87188304
getgcpfactor: 87188304
getgcpfactor: 87188304
getgcpfactor: 87188304
getgcpfactor: 87188304
getgcpfactor: 87188304
getgcpfactor: 87188304
getgcpfactor: 87188304
getgcpfactor: 87188304
getgcpfactor: 87188304
getgcpfactor: 87188304
getgcpfactor: 87188304
getgcpfactor: 87188304
getgcpfactor: 87188304
getgcpfactor: 87188304
getgcpfactor: 87188304
getgcpfactor: 87188304
getgcpfactor: 87188304
getgcpfactor: 87188304
getgcpfactor: 87188304
getgcpfactor: 87188304
getgcpfactor: 87188304
getgcpfactor: 87188304
getgcpfactor: 87188304
getgcpfactor: 87188304
getgcpfactor: 87188304
getgcpfactor: 87188304
getgcpfactor: 87188304
getgcpfactor: 87188304
penalized hit
getgcpfactor: 87188304
getgcpfactor: 87188304
getgcpfactor: 87188304
getgcpfactor: 87188304
getgcpfactor: 87188304
getgcpfactor: 87188304
getgcpfactor: 87188304
getgcpfactor: 87188304
getgcpfactor: 87188304
getgcpfactor: 87188304
getgcpfactor: 87188304
getgcpfactor: 87188304
getgcpfactor: 87188304
getgcpfactor: 87188304
getgcpfactor: 87188304
getgcpfactor: 87188304
getgcpfactor: 87188304
getgcpfactor: 87188304
getgcpfactor: 87188304
getgcpfactor: 87188304
getgcpfactor: 87188304
getgcpfactor: 87188304
getgcpfactor: 87188304
getgcpfactor: 87188304
getgcpfactor: 87188304
getgcpfactor: 87188304
getgcpfactor: 87188304
getgcpfactor: 87188304
getgcpfactor: 87188304
getgcpfactor: 87188304
getgcpfactor: 87188304
getgcpfactor: 87188304
getgcpfactor: 87188304
getgcpfactor: 87188304
getgcpfactor: 87188304
getgcpfactor: 87188304
getgcpfactor: 87188304
getgcpfactor: 87188304
getgcpfactor: 87188304
getgcpfactor: 87188304
getgcpfactor: 87188304
getgcpfactor: 87188304
getgcpfactor: 87188304
getgcpfactor: 87188304
getgcpfactor: 87188304
getgcpfactor: 87188304
getgcpfactor: 87188304
getgcpfactor: 87188304
getgcpfactor: 87188304
getgcpfactor: 87188304
penalized hit
avoided miss
getgcpfactor: 87188304
getgcpfactor: 87188304
penalized hit
avoided miss
getgcpfactor: 87188304
getgcpfactor: 87188304
avoided miss
avoided miss
getgcpfactor: 87188304
getgcpfactor: 87188304
avoided miss
avoided miss
getgcpfactor: 87188304
getgcpfactor: 87188304
avoided miss
avoided miss
getgcpfactor: 87188304
getgcpfactor: 87188304
avoided miss
avoided miss
getgcpfactor: 87188304
getgcpfactor: 87188304
avoided miss
avoided miss
getgcpfactor: 87188304
getgcpfactor: 87188304
penalized hit
avoided miss
getgcpfactor: 87188304
getgcpfactor: 87188304
avoided miss
avoided miss
getgcpfactor: 87188304
getgcpfactor: 87188304
avoided miss
avoided miss
getgcpfactor: 87188304
getgcpfactor: 87188304
avoided miss
avoided miss
getgcpfactor: 87188304
getgcpfactor: 87188304
avoided miss
avoided miss
getgcpfactor: 87188304
getgcpfactor: 87188304
avoided miss
avoided miss
getgcpfactor: 87188304
getgcpfactor: 87188304
avoided miss
getgcpfactor: 87188304
getgcpfactor: 87188304
getgcpfactor: 87188304
getgcpfactor: 87188304
penalized hit
getgcpfactor: 87188304
getgcpfactor: 87188304
getgcpfactor: 87188304
getgcpfactor: 87188304
penalized hit
penalized hit
getgcpfactor: 87188304
getgcpfactor: 87188304
getgcpfactor: 87188304
getgcpfactor: 87188304
getgcpfactor: 87188304
getgcpfactor: 87188304
getgcpfactor: 87188304
getgcpfactor: 87188304
getgcpfactor: 87188304
getgcpfactor: 87188304
getgcpfactor: 87188304
getgcpfactor: 87188304
getgcpfactor: 87188304
getgcpfactor: 87188304
penalized hit
getgcpfactor: 87188304
getgcpfactor: 87188304
getgcpfactor: 87188304
getgcpfactor: 87188304
getgcpfactor: 87188304
getgcpfactor: 87188304
penalized hit
getgcpfactor: 87188304
getgcpfactor: 87188304
getgcpfactor: 87188304
getgcpfactor: 87188304
avoided miss
getgcpfactor: 87188304
getgcpfactor: 87188304
avoided miss
getgcpfactor: 87188304
getgcpfactor: 87188304
getgcpfactor: 87188304
getgcpfactor: 87188304
getgcpfactor: 87188304
getgcpfactor: 87188304
penalized hit
getgcpfactor: 87188304
getgcpfactor: 87188304
getgcpfactor: 87188304
getgcpfactor: 87188304
getgcpfactor: 87188304
getgcpfactor: 87188304
getgcpfactor: 87188304
getgcpfactor: 87188304
getgcpfactor: 87188304
getgcpfactor: 87188304
getgcpfactor: 87188304
getgcpfactor: 87188304
getgcpfactor: 87188304
getgcpfactor: 87188304
getgcpfactor: 87188304
getgcpfactor: 87188304
getgcpfactor: 87188304
getgcpfactor: 87188304
getgcpfactor: 87188304
getgcpfactor: 87188304
getgcpfactor: 87188304
getgcpfactor: 87188304
getgcpfactor: 87188304
getgcpfactor: 87188304
getgcpfactor: 87188304
getgcpfactor: 87188304
avoided miss
getgcpfactor: 87188304
getgcpfactor: 87188304
avoided miss
avoided miss
getgcpfactor: 87188304
getgcpfactor: 87188304
avoided miss
getgcpfactor: 74986752
getgcpfactor: 87188304
getgcpfactor: 87188304
getgcpfactor: 74986752
getgcpfactor: 74986752
getgcpfactor: 87188304
getgcpfactor: 87188304
getgcpfactor: 74986752
getgcpfactor: 74986752
getgcpfactor: 87188304
getgcpfactor: 87188304
getgcpfactor: 74986752
getgcpfactor: 74986752
getgcpfactor: 87188304
getgcpfactor: 87188304
getgcpfactor: 74986752
getgcpfactor: 74986752
getgcpfactor: 87188304
getgcpfactor: 87188304
getgcpfactor: 74986752
getgcpfactor: 74986752
getgcpfactor: 87188304
getgcpfactor: 87188304
getgcpfactor: 74986752
getgcpfactor: 74986752
getgcpfactor: 87188304
getgcpfactor: 87188304
getgcpfactor: 74986752
getgcpfactor: 74986752
getgcpfactor: 87188304
getgcpfactor: 87188304
getgcpfactor: 74986752
getgcpfactor: 74986752
getgcpfactor: 87188304
getgcpfactor: 87188304
getgcpfactor: 74986752
getgcpfactor: 74986752
getgcpfactor: 87188304
getgcpfactor: 87188304
getgcpfactor: 74986752
getgcpfactor: 74986752
getgcpfactor: 87188304
getgcpfactor: 87188304
getgcpfactor: 74986752
getgcpfactor: 74986752
getgcpfactor: 87188304
getgcpfactor: 87188304
getgcpfactor: 74986752
getgcpfactor: 74986752
getgcpfactor: 87188304
getgcpfactor: 87188304
getgcpfactor: 74986752
getgcpfactor: 74986752
getgcpfactor: 87188304
getgcpfactor: 87188304
getgcpfactor: 74986752
getgcpfactor: 74986752
getgcpfactor: 87188304
getgcpfactor: 87188304
getgcpfactor: 74986752
getgcpfactor: 74986752
getgcpfactor: 87188304
getgcpfactor: 87188304
getgcpfactor: 74986752
getgcpfactor: 74986752
getgcpfactor: 87188304
getgcpfactor: 87188304
getgcpfactor: 74986752
getgcpfactor: 74986752
getgcpfactor: 87188304
getgcpfactor: 87188304
getgcpfactor: 74986752
getgcpfactor: 74986752
getgcpfactor: 87188304
getgcpfactor: 87188304
getgcpfactor: 74986752
getgcpfactor: 74986752
getgcpfactor: 87188304
getgcpfactor: 87188304
getgcpfactor: 74986752
getgcpfactor: 74986752
getgcpfactor: 87188304
getgcpfactor: 87188304
getgcpfactor: 74986752
getgcpfactor: 74986752
getgcpfactor: 87188304
getgcpfactor: 87188304
getgcpfactor: 74986752
getgcpfactor: 74986752
getgcpfactor: 87188304
getgcpfactor: 87188304
getgcpfactor: 74986752
getgcpfactor: 74986752
getgcpfactor: 87188304
getgcpfactor: 87188304
getgcpfactor: 74986752
getgcpfactor: 74986752
getgcpfactor: 87188304
getgcpfactor: 87188304
getgcpfactor: 74986752
getgcpfactor: 74986752
getgcpfactor: 87188304
getgcpfactor: 87188304
getgcpfactor: 74986752
getgcpfactor: 74986752
getgcpfactor: 87188304
getgcpfactor: 87188304
getgcpfactor: 74986752
getgcpfactor: 74986752
getgcpfactor: 87188304
getgcpfactor: 87188304
getgcpfactor: 74986752
getgcpfactor: 74986752
getgcpfactor: 87188304
getgcpfactor: 87188304
getgcpfactor: 74986752
getgcpfactor: 74986752
getgcpfactor: 87188304
getgcpfactor: 87188304
getgcpfactor: 74986752
getgcpfactor: 74986752
getgcpfactor: 87188304
getgcpfactor: 87188304
getgcpfactor: 74986752
getgcpfactor: 87188304
getgcpfactor: 87188304
getgcpfactor: 74986752
penalized hit
getgcpfactor: 87188304
getgcpfactor: 87188304
getgcpfactor: 74986752
getgcpfactor: 74986752
getgcpfactor: 87188304
getgcpfactor: 87188304
getgcpfactor: 74986752
getgcpfactor: 74986752
getgcpfactor: 87188304
getgcpfactor: 87188304
avoided miss
avoided miss
getgcpfactor: 87188304
getgcpfactor: 87188304
avoided miss
avoided miss
getgcpfactor: 87188304
getgcpfactor: 87188304
penalized hit
avoided miss
getgcpfactor: 87188304
getgcpfactor: 87188304
avoided miss
penalized hit
getgcpfactor: 87188304
getgcpfactor: 87188304
getgcpfactor: 87188304
getgcpfactor: 87188304
getgcpfactor: 87188304
getgcpfactor: 87188304
getgcpfactor: 87188304
getgcpfactor: 87188304
getgcpfactor: 87188304
getgcpfactor: 87188304
avoided miss
getgcpfactor: 87188304
getgcpfactor: 87188304
avoided miss
avoided miss
getgcpfactor: 87188304
getgcpfactor: 87188304
avoided miss
avoided miss
getgcpfactor: 87188304
getgcpfactor: 87188304
avoided miss
avoided miss
getgcpfactor: 87188304
getgcpfactor: 87188304
penalized hit
avoided miss
getgcpfactor: 87188304
getgcpfactor: 87188304
penalized hit
avoided miss
getgcpfactor: 87188304
getgcpfactor: 87188304
penalized hit
avoided miss
getgcpfactor: 87188304
getgcpfactor: 87188304
penalized hit
avoided miss
getgcpfactor: 87188304
getgcpfactor: 87188304
penalized hit
avoided miss
getgcpfactor: 87188304
getgcpfactor: 87188304
penalized hit
avoided miss
getgcpfactor: 87188304
getgcpfactor: 87188304
penalized hit
avoided miss
getgcpfactor: 87188304
getgcpfactor: 87188304
penalized hit
avoided miss
getgcpfactor: 87188304
getgcpfactor: 87188304
penalized hit
penalized hit
getgcpfactor: 87188304
getgcpfactor: 87188304
penalized hit
avoided miss
getgcpfactor: 87188304
getgcpfactor: 87188304
penalized hit
avoided miss
getgcpfactor: 87188304
getgcpfactor: 87188304
penalized hit
avoided miss
getgcpfactor: 87188304
getgcpfactor: 87188304
penalized hit
avoided miss
getgcpfactor: 87188304
getgcpfactor: 87188304
penalized hit
avoided miss
getgcpfactor: 87188304
getgcpfactor: 87188304
penalized hit
avoided miss
getgcpfactor: 87188304
getgcpfactor: 87188304
avoided miss
penalized hit
getgcpfactor: 87188304
getgcpfactor: 87188304
getgcpfactor: 74986752
getgcpfactor: 87188304
getgcpfactor: 87188304
getgcpfactor: 74986752
getgcpfactor: 74986752
getgcpfactor: 87188304
getgcpfactor: 87188304
getgcpfactor: 74986752
getgcpfactor: 74986752
getgcpfactor: 87188304
getgcpfactor: 87188304
getgcpfactor: 74986752
getgcpfactor: 74986752
getgcpfactor: 87188304
getgcpfactor: 87188304
getgcpfactor: 74986752
getgcpfactor: 74986752
getgcpfactor: 87188304
getgcpfactor: 87188304
getgcpfactor: 74986752
getgcpfactor: 74986752
getgcpfactor: 87188304
getgcpfactor: 87188304
getgcpfactor: 74986752
getgcpfactor: 74986752
getgcpfactor: 87188304
getgcpfactor: 87188304
getgcpfactor: 74986752
getgcpfactor: 74986752
getgcpfactor: 87188304
getgcpfactor: 87188304
getgcpfactor: 74986752
getgcpfactor: 74986752
getgcpfactor: 87188304
getgcpfactor: 87188304
getgcpfactor: 74986752
getgcpfactor: 74986752
getgcpfactor: 87188304
getgcpfactor: 87188304
getgcpfactor: 74986752
getgcpfactor: 74986752
getgcpfactor: 87188304
getgcpfactor: 87188304
getgcpfactor: 74986752
getgcpfactor: 74986752
getgcpfactor: 87188304
getgcpfactor: 87188304
getgcpfactor: 74986752
getgcpfactor: 74986752
getgcpfactor: 87188304
getgcpfactor: 87188304
getgcpfactor: 74986752
getgcpfactor: 74986752
getgcpfactor: 87188304
getgcpfactor: 87188304
getgcpfactor: 74986752
[...]
getgcpfactor: 87188304
getgcpfactor: 87188304
getgcpfactor: 87188304
getgcpfactor: 87188304
getgcpfactor: 87188304
getgcpfactor: 87188304
avoided miss
penalized hit
getgcpfactor: 87188304
penalized hit
penalized hit
getgcpfactor: 87188304
penalized hit
getgcpfactor: 87188304
getgcpfactor: 87188304
getgcpfactor: 87188304
getgcpfactor: 87188304
getgcpfactor: 87188304
getgcpfactor: 87188304
getgcpfactor: 87188304
getgcpfactor: 87188304
getgcpfactor: 87188304
getgcpfactor: 87188304
getgcpfactor: 87188304
getgcpfactor: 87188304
getgcpfactor: 87188304
getgcpfactor: 87188304
getgcpfactor: 87188304
getgcpfactor: 87188304
getgcpfactor: 87188304
getgcpfactor: 87188304
getgcpfactor: 87188304
getgcpfactor: 87188304
getgcpfactor: 87188304
getgcpfactor: 87188304
getgcpfactor: 87188304
getgcpfactor: 87188304
getgcpfactor: 87188304
getgcpfactor: 87188304
getgcpfactor: 87188304
getgcpfactor: 87188304
getgcpfactor: 87188304
getgcpfactor: 87188304
getgcpfactor: 87188304
getgcpfactor: 87188304
getgcpfactor: 87188304
penalized hit
penalized hit
getgcpfactor: 87188304
getgcpfactor: 87188304
avoided miss
getgcpfactor: 87188304
getgcpfactor: 87188304
avoided miss
getgcpfactor: 87188304
getgcpfactor: 87188304
penalized hit
getgcpfactor: 87188304
avoided miss
getgcpfactor: 87188304
getgcpfactor: 87188304
getgcpfactor: 87188304
getgcpfactor: 87188304
getgcpfactor: 87188304
getgcpfactor: 87188304
getgcpfactor: 87188304
getgcpfactor: 87188304
getgcpfactor: 87188304
getgcpfactor: 87188304
getgcpfactor: 87188304
getgcpfactor: 87188304
getgcpfactor: 87188304
getgcpfactor: 87188304
getgcpfactor: 87188304
getgcpfactor: 87188304
getgcpfactor: 87188304
getgcpfactor: 87188304
getgcpfactor: 87188304
getgcpfactor: 87188304
getgcpfactor: 87188304
getgcpfactor: 87188304
getgcpfactor: 87188304
getgcpfactor: 87188304
getgcpfactor: 87188304
getgcpfactor: 87188304
getgcpfactor: 87188304
getgcpfactor: 87188304
avoided miss
getgcpfactor: 87188304
getgcpfactor: 87188304
avoided miss
avoided miss
getgcpfactor: 87188304
getgcpfactor: 87188304
getgcpfactor: 87188304
getgcpfactor: 87188304
getgcpfactor: 87188304
getgcpfactor: 87188304
getgcpfactor: 87188304
getgcpfactor: 87188304
getgcpfactor: 87188304
avoided miss
getgcpfactor: 87188304
getgcpfactor: 87188304
getgcpfactor: 87188304
getgcpfactor: 87188304
getgcpfactor: 87188304
getgcpfactor: 87188304
getgcpfactor: 87188304
getgcpfactor: 87188304
getgcpfactor: 87188304
getgcpfactor: 87188304
getgcpfactor: 87188304
getgcpfactor: 87188304
getgcpfactor: 87188304
getgcpfactor: 87188304
getgcpfactor: 87188304
getgcpfactor: 87188304
getgcpfactor: 87188304
getgcpfactor: 87188304
getgcpfactor: 87188304
getgcpfactor: 87188304
getgcpfactor: 87188304
getgcpfactor: 87188304
getgcpfactor: 87188304
getgcpfactor: 87188304
getgcpfactor: 87188304
getgcpfactor: 87188304
getgcpfactor: 87188304
getgcpfactor: 87188304
getgcpfactor: 87188304
getgcpfactor: 87188304
getgcpfactor: 87188304
getgcpfactor: 87188304
getgcpfactor: 87188304
getgcpfactor: 87188304
getgcpfactor: 87188304
getgcpfactor: 87188304
getgcpfactor: 87188304
getgcpfactor: 87188304
getgcpfactor: 87188304
getgcpfactor: 87188304
getgcpfactor: 87188304
getgcpfactor: 87188304
getgcpfactor: 87188304
getgcpfactor: 87188304
getgcpfactor: 87188304
getgcpfactor: 87188304
getgcpfactor: 87188304
getgcpfactor: 87188304
getgcpfactor: 87188304
getgcpfactor: 87188304
getgcpfactor: 87188304
getgcpfactor: 87188304
getgcpfactor: 87188304
getgcpfactor: 87188304
getgcpfactor: 87188304
getgcpfactor: 87188304
getgcpfactor: 87188304
getgcpfactor: 87188304
getgcpfactor: 87188304
getgcpfactor: 87188304
getgcpfactor: 87188304
getgcpfactor: 87188304
getgcpfactor: 87188304
getgcpfactor: 87188304
getgcpfactor: 87188304
penalized hit
getgcpfactor: 87188304
avoided miss
getgcpfactor: 87188304
avoided miss
getgcpfactor: 87188304
avoided miss
getgcpfactor: 87188304
getgcpfactor: 87188304
getgcpfactor: 87188304
getgcpfactor: 87188304
getgcpfactor: 87188304
getgcpfactor: 87188304
getgcpfactor: 87188304
getgcpfactor: 87188304
getgcpfactor: 87188304
getgcpfactor: 87188304
getgcpfactor: 87188304
getgcpfactor: 87188304
getgcpfactor: 87188304
getgcpfactor: 87188304
getgcpfactor: 87188304
getgcpfactor: 87188304
getgcpfactor: 87188304
getgcpfactor: 87188304
getgcpfactor: 87188304
getgcpfactor: 87188304
getgcpfactor: 87188304
getgcpfactor: 87188304
getgcpfactor: 87188304
getgcpfactor: 87188304
getgcpfactor: 87188304
getgcpfactor: 87188304
getgcpfactor: 87188304
getgcpfactor: 87188304
getgcpfactor: 87188304
getgcpfactor: 87188304
getgcpfactor: 87188304
getgcpfactor: 87188304
getgcpfactor: 74986752
getgcpfactor: 87188304
avoided miss
penalized hit
getgcpfactor: 87188304
avoided miss
penalized hit
getgcpfactor: 87188304
penalized hit
getgcpfactor: 74986752
getgcpfactor: 87188304
avoided miss
getgcpfactor: 87188304
getgcpfactor: 87188304
avoided miss
getgcpfactor: 87188304
getgcpfactor: 87188304
getgcpfactor: 87188304
getgcpfactor: 87188304
getgcpfactor: 87188304
getgcpfactor: 87188304
getgcpfactor: 87188304
getgcpfactor: 87188304
getgcpfactor: 87188304
getgcpfactor: 87188304
getgcpfactor: 87188304
getgcpfactor: 87188304
getgcpfactor: 87188304
getgcpfactor: 87188304
getgcpfactor: 87188304
getgcpfactor: 87188304
getgcpfactor: 87188304
getgcpfactor: 87188304
getgcpfactor: 87188304
getgcpfactor: 87188304
getgcpfactor: 87188304
getgcpfactor: 87188304
getgcpfactor: 87188304
getgcpfactor: 87188304
getgcpfactor: 87188304
getgcpfactor: 87188304
getgcpfactor: 87188304
getgcpfactor: 87188304
getgcpfactor: 87188304
getgcpfactor: 87188304
getgcpfactor: 87188304
getgcpfactor: 87188304
getgcpfactor: 87188304
getgcpfactor: 87188304
getgcpfactor: 87188304
getgcpfactor: 87188304
getgcpfactor: 87188304
getgcpfactor: 87188304
getgcpfactor: 87188304
getgcpfactor: 74986752
getgcpfactor: 87188304
penalized hit
getgcpfactor: 87188304
avoided miss
avoided miss
getgcpfactor: 87188304
avoided miss
getgcpfactor: 74986752
getgcpfactor: 87188304
avoided miss
getgcpfactor: 87188304
avoided miss
getgcpfactor: 87188304
penalized hit
getgcpfactor: 87188304
avoided miss
getgcpfactor: 87188304
penalized hit
getgcpfactor: 87188304
avoided miss
getgcpfactor: 87188304
avoided miss
penalized hit
getgcpfactor: 87188304
getgcpfactor: 87188304
penalized hit
penalized hit
getgcpfactor: 87188304
getgcpfactor: 87188304
avoided miss
penalized hit
getgcpfactor: 87188304
avoided miss
getgcpfactor: 87188304
penalized hit
getgcpfactor: 87188304
penalized hit
getgcpfactor: 87188304
penalized hit
getgcpfactor: 87188304
avoided miss
penalized hit
getgcpfactor: 87188304
avoided miss
getgcpfactor: 87188304
penalized hit
penalized hit
getgcpfactor: 87188304
getgcpfactor: 87188304
getgcpfactor: 87188304
getgcpfactor: 87188304
getgcpfactor: 87188304
getgcpfactor: 87188304
getgcpfactor: 87188304
getgcpfactor: 87188304
getgcpfactor: 87188304
getgcpfactor: 87188304
getgcpfactor: 87188304
getgcpfactor: 87188304
getgcpfactor: 87188304
getgcpfactor: 87188304
getgcpfactor: 87188304
penalized hit
getgcpfactor: 87188304
getgcpfactor: 87188304
getgcpfactor: 87188304
getgcpfactor: 87188304
getgcpfactor: 87188304
getgcpfactor: 87188304
getgcpfactor: 87188304
getgcpfactor: 87188304
getgcpfactor: 87188304
getgcpfactor: 87188304
getgcpfactor: 87188304
getgcpfactor: 87188304
getgcpfactor: 87188304
getgcpfactor: 87188304
getgcpfactor: 87188304
getgcpfactor: 87188304
getgcpfactor: 87188304
getgcpfactor: 87188304
getgcpfactor: 87188304
getgcpfactor: 87188304
getgcpfactor: 87188304
penalized hit
getgcpfactor: 87188304
getgcpfactor: 87188304
getgcpfactor: 87188304
getgcpfactor: 87188304
getgcpfactor: 87188304
penalized hit
getgcpfactor: 87188304
penalized hit
getgcpfactor: 87188304
getgcpfactor: 87188304
getgcpfactor: 87188304
getgcpfactor: 87188304
getgcpfactor: 87188304
getgcpfactor: 87188304
getgcpfactor: 87188304
getgcpfactor: 87188304
getgcpfactor: 87188304
getgcpfactor: 87188304
getgcpfactor: 87188304
penalized hit
getgcpfactor: 74986752
getgcpfactor: 87188304
avoided miss
getgcpfactor: 87188304
penalized hit
avoided miss
getgcpfactor: 87188304
penalized hit
getgcpfactor: 87188304
penalized hit
getgcpfactor: 87188304
penalized hit
penalized hit
getgcpfactor: 87188304
avoided miss
getgcpfactor: 87188304
penalized hit
getgcpfactor: 87188304
penalized hit
penalized hit
getgcpfactor: 87188304
penalized hit
getgcpfactor: 87188304
getgcpfactor: 87188304
penalized hit
penalized hit
getgcpfactor: 87188304
avoided miss
getgcpfactor: 87188304
penalized hit
penalized hit
getgcpfactor: 87188304
avoided miss
getgcpfactor: 87188304
avoided miss
penalized hit
getgcpfactor: 87188304
penalized hit
getgcpfactor: 87188304
getgcpfactor: 74986752
getgcpfactor: 87188304
avoided miss
penalized hit
getgcpfactor: 87188304
penalized hit
getgcpfactor: 87188304
penalized hit
avoided miss
getgcpfactor: 87188304
penalized hit
getgcpfactor: 87188304
avoided miss
getgcpfactor: 87188304
penalized hit
penalized hit
getgcpfactor: 87188304
penalized hit
getgcpfactor: 87188304
getgcpfactor: 87188304
getgcpfactor: 87188304
getgcpfactor: 87188304
getgcpfactor: 87188304
getgcpfactor: 87188304
getgcpfactor: 87188304
getgcpfactor: 87188304
getgcpfactor: 87188304
getgcpfactor: 87188304
getgcpfactor: 87188304
getgcpfactor: 87188304
getgcpfactor: 87188304
getgcpfactor: 87188304
getgcpfactor: 87188304
getgcpfactor: 87188304
getgcpfactor: 87188304
getgcpfactor: 87188304
getgcpfactor: 87188304
getgcpfactor: 87188304
getgcpfactor: 87188304
getgcpfactor: 87188304
getgcpfactor: 87188304
getgcpfactor: 87188304
getgcpfactor: 87188304
getgcpfactor: 87188304
getgcpfactor: 87188304
getgcpfactor: 87188304
getgcpfactor: 87188304
getgcpfactor: 87188304
getgcpfactor: 87188304
getgcpfactor: 87188304
getgcpfactor: 87188304
getgcpfactor: 87188304
getgcpfactor: 87188304
getgcpfactor: 87188304
getgcpfactor: 87188304
getgcpfactor: 87188304
getgcpfactor: 87188304
getgcpfactor: 87188304
getgcpfactor: 87188304
getgcpfactor: 87188304
getgcpfactor: 87188304
getgcpfactor: 87188304
getgcpfactor: 87188304
getgcpfactor: 87188304
getgcpfactor: 87188304
getgcpfactor: 87188304
getgcpfactor: 87188304
getgcpfactor: 87188304
getgcpfactor: 87188304
getgcpfactor: 87188304
getgcpfactor: 87188304
getgcpfactor: 87188304
getgcpfactor: 87188304
getgcpfactor: 87188304
getgcpfactor: 87188304
getgcpfactor: 87188304
getgcpfactor: 87188304
getgcpfactor: 87188304
getgcpfactor: 87188304
getgcpfactor: 87188304
getgcpfactor: 87188304
getgcpfactor: 87188304
getgcpfactor: 87188304
getgcpfactor: 87188304
getgcpfactor: 87188304
getgcpfactor: 87188304
getgcpfactor: 87188304
getgcpfactor: 87188304
getgcpfactor: 87188304
getgcpfactor: 87188304
getgcpfactor: 87188304
getgcpfactor: 87188304
getgcpfactor: 87188304
getgcpfactor: 87188304
getgcpfactor: 87188304
getgcpfactor: 87188304
getgcpfactor: 87188304
getgcpfactor: 87188304
getgcpfactor: 87188304
getgcpfactor: 87188304
getgcpfactor: 87188304
getgcpfactor: 87188304
getgcpfactor: 87188304
getgcpfactor: 87188304
getgcpfactor: 87188304
getgcpfactor: 87188304
getgcpfactor: 87188304
getgcpfactor: 87188304
getgcpfactor: 87188304
getgcpfactor: 87188304
getgcpfactor: 87188304
getgcpfactor: 87188304
getgcpfactor: 87188304
getgcpfactor: 87188304
getgcpfactor: 87188304
getgcpfactor: 87188304
getgcpfactor: 87188304
getgcpfactor: 87188304
getgcpfactor: 87188304
getgcpfactor: 87188304
getgcpfactor: 87188304
getgcpfactor: 87188304
getgcpfactor: 87188304
getgcpfactor: 87188304
getgcpfactor: 87188304
getgcpfactor: 87188304
getgcpfactor: 87188304
getgcpfactor: 87188304
getgcpfactor: 87188304
getgcpfactor: 87188304
getgcpfactor: 87188304
getgcpfactor: 87188304
getgcpfactor: 87188304
getgcpfactor: 87188304
getgcpfactor: 87188304
getgcpfactor: 87188304
getgcpfactor: 87188304
getgcpfactor: 87188304
getgcpfactor: 87188304
getgcpfactor: 87188304
getgcpfactor: 87188304
getgcpfactor: 87188304
getgcpfactor: 87188304
getgcpfactor: 87188304
getgcpfactor: 87188304
getgcpfactor: 87188304
getgcpfactor: 87188304
getgcpfactor: 87188304
getgcpfactor: 87188304
getgcpfactor: 87188304
getgcpfactor: 87188304
getgcpfactor: 87188304
getgcpfactor: 87188304
getgcpfactor: 87188304
getgcpfactor: 87188304
getgcpfactor: 87188304
getgcpfactor: 87188304
getgcpfactor: 87188304
getgcpfactor: 87188304
getgcpfactor: 87188304
penalized hit
getgcpfactor: 87188304
penalized hit
getgcpfactor: 87188304
getgcpfactor: 87188304
getgcpfactor: 87188304
getgcpfactor: 87188304
getgcpfactor: 87188304
getgcpfactor: 87188304
getgcpfactor: 87188304
getgcpfactor: 87188304
getgcpfactor: 87188304
getgcpfactor: 87188304
getgcpfactor: 87188304
penalized hit
getgcpfactor: 87188304
getgcpfactor: 87188304
getgcpfactor: 87188304
getgcpfactor: 87188304
getgcpfactor: 87188304
getgcpfactor: 87188304
getgcpfactor: 87188304
getgcpfactor: 87188304
getgcpfactor: 87188304
getgcpfactor: 87188304
getgcpfactor: 87188304
getgcpfactor: 87188304
getgcpfactor: 87188304
getgcpfactor: 87188304
getgcpfactor: 87188304
getgcpfactor: 87188304
getgcpfactor: 87188304
getgcpfactor: 87188304
getgcpfactor: 87188304
getgcpfactor: 87188304
getgcpfactor: 87188304
getgcpfactor: 87188304
getgcpfactor: 87188304
getgcpfactor: 87188304
getgcpfactor: 87188304
getgcpfactor: 87188304
getgcpfactor: 87188304
getgcpfactor: 87188304
getgcpfactor: 87188304
getgcpfactor: 87188304
getgcpfactor: 87188304
getgcpfactor: 87188304
getgcpfactor: 87188304
getgcpfactor: 87188304
getgcpfactor: 87188304
getgcpfactor: 87188304
penalized hit
avoided miss
getgcpfactor: 87188304
penalized hit
penalized hit
getgcpfactor: 87188304
avoided miss
getgcpfactor: 87188304
getgcpfactor: 87188304
getgcpfactor: 87188304
getgcpfactor: 87188304
getgcpfactor: 87188304
getgcpfactor: 87188304
getgcpfactor: 87188304
getgcpfactor: 87188304
getgcpfactor: 87188304
getgcpfactor: 87188304
getgcpfactor: 87188304
penalized hit
getgcpfactor: 87188304
penalized hit
getgcpfactor: 87188304
getgcpfactor: 87188304
penalized hit
getgcpfactor: 87188304
penalized hit
getgcpfactor: 87188304
getgcpfactor: 87188304
avoided miss
getgcpfactor: 87188304
penalized hit
getgcpfactor: 87188304
getgcpfactor: 87188304
getgcpfactor: 87188304
getgcpfactor: 87188304
getgcpfactor: 87188304
getgcpfactor: 87188304
getgcpfactor: 87188304
getgcpfactor: 87188304
getgcpfactor: 87188304
getgcpfactor: 87188304
getgcpfactor: 87188304
getgcpfactor: 87188304
getgcpfactor: 87188304
getgcpfactor: 87188304
penalized hit
getgcpfactor: 87188304
getgcpfactor: 87188304
getgcpfactor: 87188304
getgcpfactor: 87188304
penalized hit
getgcpfactor: 87188304
penalized hit
getgcpfactor: 87188304
getgcpfactor: 87188304
getgcpfactor: 87188304
getgcpfactor: 87188304
getgcpfactor: 87188304
getgcpfactor: 87188304
getgcpfactor: 87188304
getgcpfactor: 87188304
getgcpfactor: 87188304
getgcpfactor: 87188304
getgcpfactor: 87188304
getgcpfactor: 87188304
getgcpfactor: 87188304
getgcpfactor: 87188304
penalized hit
getgcpfactor: 87188304
avoided miss
getgcpfactor: 87188304
penalized hit
getgcpfactor: 74986752
getgcpfactor: 87188304
penalized hit
penalized hit
getgcpfactor: 87188304
getgcpfactor: 74986752
getgcpfactor: 87188304
penalized hit
penalized hit
getgcpfactor: 87188304
penalized hit
penalized hit
getgcpfactor: 87188304
penalized hit
getgcpfactor: 87188304
penalized hit
getgcpfactor: 87188304
getgcpfactor: 87188304
getgcpfactor: 87188304
getgcpfactor: 87188304
getgcpfactor: 87188304
avoided miss
getgcpfactor: 87188304
penalized hit
getgcpfactor: 87188304
getgcpfactor: 87188304
getgcpfactor: 87188304
getgcpfactor: 87188304
getgcpfactor: 87188304
getgcpfactor: 87188304
getgcpfactor: 87188304
penalized hit
getgcpfactor: 87188304
penalized hit
getgcpfactor: 87188304
getgcpfactor: 87188304
penalized hit
getgcpfactor: 87188304
penalized hit
penalized hit
getgcpfactor: 87188304
getgcpfactor: 87188304
getgcpfactor: 87188304
getgcpfactor: 87188304
getgcpfactor: 87188304
getgcpfactor: 87188304
getgcpfactor: 87188304
getgcpfactor: 87188304
getgcpfactor: 87188304
getgcpfactor: 87188304
penalized hit
getgcpfactor: 87188304
getgcpfactor: 87188304
getgcpfactor: 87188304
getgcpfactor: 87188304
getgcpfactor: 87188304
getgcpfactor: 87188304
getgcpfactor: 87188304
getgcpfactor: 87188304
penalized hit
getgcpfactor: 87188304
getgcpfactor: 87188304
getgcpfactor: 87188304
getgcpfactor: 87188304
getgcpfactor: 87188304
getgcpfactor: 87188304
getgcpfactor: 87188304
getgcpfactor: 87188304
getgcpfactor: 87188304
getgcpfactor: 87188304
getgcpfactor: 87188304
getgcpfactor: 87188304
getgcpfactor: 87188304
getgcpfactor: 87188304
getgcpfactor: 87188304
getgcpfactor: 87188304
getgcpfactor: 87188304
getgcpfactor: 87188304
penalized hit
getgcpfactor: 87188304
getgcpfactor: 87188304
avoided miss
getgcpfactor: 87188304
penalized hit
getgcpfactor: 87188304
penalized hit
getgcpfactor: 74986752
getgcpfactor: 87188304
avoided miss
avoided miss
getgcpfactor: 87188304
penalized hit
getgcpfactor: 87188304
getgcpfactor: 87188304
penalized hit
penalized hit
getgcpfactor: 87188304
getgcpfactor: 87188304
penalized hit
penalized hit
getgcpfactor: 87188304
getgcpfactor: 87188304
penalized hit
penalized hit
getgcpfactor: 87188304
getgcpfactor: 87188304
penalized hit
penalized hit
getgcpfactor: 87188304
getgcpfactor: 87188304
penalized hit
penalized hit
getgcpfactor: 87188304
getgcpfactor: 87188304
penalized hit
getgcpfactor: 74986752
getgcpfactor: 87188304
avoided miss
penalized hit
getgcpfactor: 87188304
getgcpfactor: 87188304
penalized hit
penalized hit
getgcpfactor: 87188304
getgcpfactor: 87188304
avoided miss
getgcpfactor: 87188304
avoided miss
avoided miss
getgcpfactor: 87188304
penalized hit
getgcpfactor: 87188304
getgcpfactor: 87188304
getgcpfactor: 87188304
getgcpfactor: 87188304
getgcpfactor: 87188304
getgcpfactor: 87188304
avoided miss
getgcpfactor: 87188304
penalized hit
getgcpfactor: 87188304
getgcpfactor: 87188304
getgcpfactor: 87188304
getgcpfactor: 87188304
getgcpfactor: 87188304
getgcpfactor: 87188304
getgcpfactor: 87188304
penalized hit
getgcpfactor: 87188304
penalized hit
getgcpfactor: 87188304
getgcpfactor: 87188304
penalized hit
getgcpfactor: 87188304
penalized hit
getgcpfactor: 87188304
avoided miss
getgcpfactor: 87188304
getgcpfactor: 87188304
getgcpfactor: 87188304
getgcpfactor: 87188304
getgcpfactor: 87188304
getgcpfactor: 87188304
getgcpfactor: 87188304
getgcpfactor: 87188304
getgcpfactor: 87188304
getgcpfactor: 87188304
penalized hit
getgcpfactor: 87188304
penalized hit
getgcpfactor: 87188304
penalized hit
getgcpfactor: 87188304
getgcpfactor: 87188304
getgcpfactor: 87188304
getgcpfactor: 87188304
getgcpfactor: 87188304
getgcpfactor: 87188304
getgcpfactor: 87188304
getgcpfactor: 87188304
getgcpfactor: 87188304
getgcpfactor: 87188304
getgcpfactor: 87188304
getgcpfactor: 87188304
getgcpfactor: 87188304
getgcpfactor: 87188304
getgcpfactor: 87188304
getgcpfactor: 87188304
getgcpfactor: 87188304
getgcpfactor: 87188304
getgcpfactor: 87188304
getgcpfactor: 87188304
getgcpfactor: 87188304
getgcpfactor: 87188304
getgcpfactor: 87188304
getgcpfactor: 87188304
getgcpfactor: 87188304
penalized hit
getgcpfactor: 87188304
avoided miss
getgcpfactor: 87188304
avoided miss
getgcpfactor: 87188304
penalized hit
getgcpfactor: 74986752
getgcpfactor: 87188304
avoided miss
penalized hit
getgcpfactor: 87188304
avoided miss
penalized hit
getgcpfactor: 87188304
getgcpfactor: 87188304
penalized hit
penalized hit
getgcpfactor: 87188304
getgcpfactor: 87188304
penalized hit
penalized hit
getgcpfactor: 87188304
getgcpfactor: 87188304
penalized hit
penalized hit
getgcpfactor: 87188304
getgcpfactor: 87188304
penalized hit
penalized hit
getgcpfactor: 87188304
getgcpfactor: 87188304
penalized hit
penalized hit
getgcpfactor: 87188304
getgcpfactor: 87188304
penalized hit
getgcpfactor: 74986752
getgcpfactor: 87188304
penalized hit
avoided miss
getgcpfactor: 87188304
penalized hit
penalized hit
getgcpfactor: 87188304
getgcpfactor: 87188304
penalized hit
penalized hit
getgcpfactor: 87188304
penalized hit
getgcpfactor: 87188304
avoided miss
avoided miss
getgcpfactor: 87188304
penalized hit
getgcpfactor: 87188304
avoided miss
getgcpfactor: 87188304
Exiting @ tick 7298520500 because a thread reached the max instruction count
